1



                                 *********************************************

                                    NUMERICAL ELECTROMAGNETICS CODE (NEC-2D)

                                 *********************************************




                                     - - - - COMMENTS - - - -


                          Example 1 :	Dipole in free space 	                                         
                          See GetStarted.txt                                                         
                                                                                                     
                                                                                                     
                                                                                                     
                                                                                                     
                          forw: 90, 225 ; back:-90, 225                                              
                                                                                                     




                                 - - - STRUCTURE SPECIFICATION - - -

                                     COORDINATES MUST BE INPUT IN
                                     METERS OR BE SCALED TO METERS
                                     BEFORE STRUCTURE INPUT IS ENDED


  WIRE                                                                               NO. OF    FIRST  LAST     TAG
  NO.        X1         Y1         Z1          X2         Y2         Z2      RADIUS   SEG.     SEG.   SEG.     NO.
     1    0.00000    0.00000    0.00000     0.00000    0.00000    0.75000    0.00500     49        1    49       1
     2    0.37500    0.00000    0.00000     0.37500    0.00000    0.75000    0.00500     49       50    98       2
     3    0.37500   -0.37500    0.00000     0.37500   -0.37500    0.75000    0.00500     49       99   147       3
     4    0.37500    0.37500    0.00000     0.37500    0.37500    0.75000    0.00500     49      148   196       4
     5    0.00000    0.37500    0.00000     0.00000    0.37500    0.75000    0.00500     49      197   245       5
     6   -0.37500    0.37500    0.00000    -0.37500    0.37500    0.75000    0.00500     49      246   294       6

   TOTAL SEGMENTS USED=  294     NO. SEG. IN A SYMMETRIC CELL=  294     SYMMETRY FLAG=  0


         - MULTIPLE WIRE JUNCTIONS -
 JUNCTION    SEGMENTS  (- FOR END 1, + FOR END 2)
  NONE




                                 - - - - SEGMENTATION DATA - - - -

                                        COORDINATES IN METERS

                         I+ AND I- INDICATE THE SEGMENTS BEFORE AND AFTER I


  SEG.   COORDINATES OF SEG. CENTER     SEG.     ORIENTATION ANGLES    WIRE    CONNECTION DATA   TAG
  NO.       X         Y         Z       LENGTH     ALPHA     BETA      RADIUS    I-   I    I+    NO.
     1   0.00000   0.00000   0.00765   0.01531   90.00000   0.00000   0.00500     0    1    2      1
     2   0.00000   0.00000   0.02296   0.01531   90.00000   0.00000   0.00500     1    2    3      1
     3   0.00000   0.00000   0.03827   0.01531   90.00000   0.00000   0.00500     2    3    4      1
     4   0.00000   0.00000   0.05357   0.01531   90.00000   0.00000   0.00500     3    4    5      1
     5   0.00000   0.00000   0.06888   0.01531   90.00000   0.00000   0.00500     4    5    6      1
     6   0.00000   0.00000   0.08418   0.01531   90.00000   0.00000   0.00500     5    6    7      1
     7   0.00000   0.00000   0.09949   0.01531   90.00000   0.00000   0.00500     6    7    8      1
     8   0.00000   0.00000   0.11480   0.01531   90.00000   0.00000   0.00500     7    8    9      1
     9   0.00000   0.00000   0.13010   0.01531   90.00000   0.00000   0.00500     8    9   10      1
    10   0.00000   0.00000   0.14541   0.01531   90.00000   0.00000   0.00500     9   10   11      1
    11   0.00000   0.00000   0.16071   0.01531   90.00000   0.00000   0.00500    10   11   12      1
    12   0.00000   0.00000   0.17602   0.01531   90.00000   0.00000   0.00500    11   12   13      1
    13   0.00000   0.00000   0.19133   0.01531   90.00000   0.00000   0.00500    12   13   14      1
    14   0.00000   0.00000   0.20663   0.01531   90.00000   0.00000   0.00500    13   14   15      1
    15   0.00000   0.00000   0.22194   0.01531   90.00000   0.00000   0.00500    14   15   16      1
    16   0.00000   0.00000   0.23724   0.01531   90.00000   0.00000   0.00500    15   16   17      1
    17   0.00000   0.00000   0.25255   0.01531   90.00000   0.00000   0.00500    16   17   18      1
    18   0.00000   0.00000   0.26786   0.01531   90.00000   0.00000   0.00500    17   18   19      1
    19   0.00000   0.00000   0.28316   0.01531   90.00000   0.00000   0.00500    18   19   20      1
    20   0.00000   0.00000   0.29847   0.01531   90.00000   0.00000   0.00500    19   20   21      1
    21   0.00000   0.00000   0.31378   0.01531   90.00000   0.00000   0.00500    20   21   22      1
    22   0.00000   0.00000   0.32908   0.01531   90.00000   0.00000   0.00500    21   22   23      1
    23   0.00000   0.00000   0.34439   0.01531   90.00000   0.00000   0.00500    22   23   24      1
    24   0.00000   0.00000   0.35969   0.01531   90.00000   0.00000   0.00500    23   24   25      1
    25   0.00000   0.00000   0.37500   0.01531   90.00000   0.00000   0.00500    24   25   26      1
    26   0.00000   0.00000   0.39031   0.01531   90.00000   0.00000   0.00500    25   26   27      1
    27   0.00000   0.00000   0.40561   0.01531   90.00000   0.00000   0.00500    26   27   28      1
    28   0.00000   0.00000   0.42092   0.01531   90.00000   0.00000   0.00500    27   28   29      1
    29   0.00000   0.00000   0.43622   0.01531   90.00000   0.00000   0.00500    28   29   30      1
    30   0.00000   0.00000   0.45153   0.01531   90.00000   0.00000   0.00500    29   30   31      1
    31   0.00000   0.00000   0.46684   0.01531   90.00000   0.00000   0.00500    30   31   32      1
    32   0.00000   0.00000   0.48214   0.01531   90.00000   0.00000   0.00500    31   32   33      1
    33   0.00000   0.00000   0.49745   0.01531   90.00000   0.00000   0.00500    32   33   34      1
    34   0.00000   0.00000   0.51276   0.01531   90.00000   0.00000   0.00500    33   34   35      1
    35   0.00000   0.00000   0.52806   0.01531   90.00000   0.00000   0.00500    34   35   36      1
    36   0.00000   0.00000   0.54337   0.01531   90.00000   0.00000   0.00500    35   36   37      1
    37   0.00000   0.00000   0.55867   0.01531   90.00000   0.00000   0.00500    36   37   38      1
    38   0.00000   0.00000   0.57398   0.01531   90.00000   0.00000   0.00500    37   38   39      1
    39   0.00000   0.00000   0.58929   0.01531   90.00000   0.00000   0.00500    38   39   40      1
    40   0.00000   0.00000   0.60459   0.01531   90.00000   0.00000   0.00500    39   40   41      1
    41   0.00000   0.00000   0.61990   0.01531   90.00000   0.00000   0.00500    40   41   42      1
    42   0.00000   0.00000   0.63520   0.01531   90.00000   0.00000   0.00500    41   42   43      1
    43   0.00000   0.00000   0.65051   0.01531   90.00000   0.00000   0.00500    42   43   44      1
    44   0.00000   0.00000   0.66582   0.01531   90.00000   0.00000   0.00500    43   44   45      1
    45   0.00000   0.00000   0.68112   0.01531   90.00000   0.00000   0.00500    44   45   46      1
    46   0.00000   0.00000   0.69643   0.01531   90.00000   0.00000   0.00500    45   46   47      1
    47   0.00000   0.00000   0.71173   0.01531   90.00000   0.00000   0.00500    46   47   48      1
    48   0.00000   0.00000   0.72704   0.01531   90.00000   0.00000   0.00500    47   48   49      1
    49   0.00000   0.00000   0.74235   0.01531   90.00000   0.00000   0.00500    48   49    0      1
    50   0.37500   0.00000   0.00765   0.01531   90.00000   0.00000   0.00500     0   50   51      2
    51   0.37500   0.00000   0.02296   0.01531   90.00000   0.00000   0.00500    50   51   52      2
    52   0.37500   0.00000   0.03827   0.01531   90.00000   0.00000   0.00500    51   52   53      2
    53   0.37500   0.00000   0.05357   0.01531   90.00000   0.00000   0.00500    52   53   54      2
    54   0.37500   0.00000   0.06888   0.01531   90.00000   0.00000   0.00500    53   54   55      2
    55   0.37500   0.00000   0.08418   0.01531   90.00000   0.00000   0.00500    54   55   56      2
    56   0.37500   0.00000   0.09949   0.01531   90.00000   0.00000   0.00500    55   56   57      2
    57   0.37500   0.00000   0.11480   0.01531   90.00000   0.00000   0.00500    56   57   58      2
    58   0.37500   0.00000   0.13010   0.01531   90.00000   0.00000   0.00500    57   58   59      2
    59   0.37500   0.00000   0.14541   0.01531   90.00000   0.00000   0.00500    58   59   60      2
    60   0.37500   0.00000   0.16071   0.01531   90.00000   0.00000   0.00500    59   60   61      2
    61   0.37500   0.00000   0.17602   0.01531   90.00000   0.00000   0.00500    60   61   62      2
    62   0.37500   0.00000   0.19133   0.01531   90.00000   0.00000   0.00500    61   62   63      2
    63   0.37500   0.00000   0.20663   0.01531   90.00000   0.00000   0.00500    62   63   64      2
    64   0.37500   0.00000   0.22194   0.01531   90.00000   0.00000   0.00500    63   64   65      2
    65   0.37500   0.00000   0.23724   0.01531   90.00000   0.00000   0.00500    64   65   66      2
    66   0.37500   0.00000   0.25255   0.01531   90.00000   0.00000   0.00500    65   66   67      2
    67   0.37500   0.00000   0.26786   0.01531   90.00000   0.00000   0.00500    66   67   68      2
    68   0.37500   0.00000   0.28316   0.01531   90.00000   0.00000   0.00500    67   68   69      2
    69   0.37500   0.00000   0.29847   0.01531   90.00000   0.00000   0.00500    68   69   70      2
    70   0.37500   0.00000   0.31378   0.01531   90.00000   0.00000   0.00500    69   70   71      2
    71   0.37500   0.00000   0.32908   0.01531   90.00000   0.00000   0.00500    70   71   72      2
    72   0.37500   0.00000   0.34439   0.01531   90.00000   0.00000   0.00500    71   72   73      2
    73   0.37500   0.00000   0.35969   0.01531   90.00000   0.00000   0.00500    72   73   74      2
    74   0.37500   0.00000   0.37500   0.01531   90.00000   0.00000   0.00500    73   74   75      2
    75   0.37500   0.00000   0.39031   0.01531   90.00000   0.00000   0.00500    74   75   76      2
    76   0.37500   0.00000   0.40561   0.01531   90.00000   0.00000   0.00500    75   76   77      2
    77   0.37500   0.00000   0.42092   0.01531   90.00000   0.00000   0.00500    76   77   78      2
    78   0.37500   0.00000   0.43622   0.01531   90.00000   0.00000   0.00500    77   78   79      2
    79   0.37500   0.00000   0.45153   0.01531   90.00000   0.00000   0.00500    78   79   80      2
    80   0.37500   0.00000   0.46684   0.01531   90.00000   0.00000   0.00500    79   80   81      2
    81   0.37500   0.00000   0.48214   0.01531   90.00000   0.00000   0.00500    80   81   82      2
    82   0.37500   0.00000   0.49745   0.01531   90.00000   0.00000   0.00500    81   82   83      2
    83   0.37500   0.00000   0.51276   0.01531   90.00000   0.00000   0.00500    82   83   84      2
    84   0.37500   0.00000   0.52806   0.01531   90.00000   0.00000   0.00500    83   84   85      2
    85   0.37500   0.00000   0.54337   0.01531   90.00000   0.00000   0.00500    84   85   86      2
    86   0.37500   0.00000   0.55867   0.01531   90.00000   0.00000   0.00500    85   86   87      2
    87   0.37500   0.00000   0.57398   0.01531   90.00000   0.00000   0.00500    86   87   88      2
    88   0.37500   0.00000   0.58929   0.01531   90.00000   0.00000   0.00500    87   88   89      2
    89   0.37500   0.00000   0.60459   0.01531   90.00000   0.00000   0.00500    88   89   90      2
    90   0.37500   0.00000   0.61990   0.01531   90.00000   0.00000   0.00500    89   90   91      2
    91   0.37500   0.00000   0.63520   0.01531   90.00000   0.00000   0.00500    90   91   92      2
    92   0.37500   0.00000   0.65051   0.01531   90.00000   0.00000   0.00500    91   92   93      2
    93   0.37500   0.00000   0.66582   0.01531   90.00000   0.00000   0.00500    92   93   94      2
    94   0.37500   0.00000   0.68112   0.01531   90.00000   0.00000   0.00500    93   94   95      2
    95   0.37500   0.00000   0.69643   0.01531   90.00000   0.00000   0.00500    94   95   96      2
    96   0.37500   0.00000   0.71173   0.01531   90.00000   0.00000   0.00500    95   96   97      2
    97   0.37500   0.00000   0.72704   0.01531   90.00000   0.00000   0.00500    96   97   98      2
    98   0.37500   0.00000   0.74235   0.01531   90.00000   0.00000   0.00500    97   98    0      2
    99   0.37500  -0.37500   0.00765   0.01531   90.00000   0.00000   0.00500     0   99  100      3
   100   0.37500  -0.37500   0.02296   0.01531   90.00000   0.00000   0.00500    99  100  101      3
   101   0.37500  -0.37500   0.03827   0.01531   90.00000   0.00000   0.00500   100  101  102      3
   102   0.37500  -0.37500   0.05357   0.01531   90.00000   0.00000   0.00500   101  102  103      3
   103   0.37500  -0.37500   0.06888   0.01531   90.00000   0.00000   0.00500   102  103  104      3
   104   0.37500  -0.37500   0.08418   0.01531   90.00000   0.00000   0.00500   103  104  105      3
   105   0.37500  -0.37500   0.09949   0.01531   90.00000   0.00000   0.00500   104  105  106      3
   106   0.37500  -0.37500   0.11480   0.01531   90.00000   0.00000   0.00500   105  106  107      3
   107   0.37500  -0.37500   0.13010   0.01531   90.00000   0.00000   0.00500   106  107  108      3
   108   0.37500  -0.37500   0.14541   0.01531   90.00000   0.00000   0.00500   107  108  109      3
   109   0.37500  -0.37500   0.16071   0.01531   90.00000   0.00000   0.00500   108  109  110      3
   110   0.37500  -0.37500   0.17602   0.01531   90.00000   0.00000   0.00500   109  110  111      3
   111   0.37500  -0.37500   0.19133   0.01531   90.00000   0.00000   0.00500   110  111  112      3
   112   0.37500  -0.37500   0.20663   0.01531   90.00000   0.00000   0.00500   111  112  113      3
   113   0.37500  -0.37500   0.22194   0.01531   90.00000   0.00000   0.00500   112  113  114      3
   114   0.37500  -0.37500   0.23724   0.01531   90.00000   0.00000   0.00500   113  114  115      3
   115   0.37500  -0.37500   0.25255   0.01531   90.00000   0.00000   0.00500   114  115  116      3
   116   0.37500  -0.37500   0.26786   0.01531   90.00000   0.00000   0.00500   115  116  117      3
   117   0.37500  -0.37500   0.28316   0.01531   90.00000   0.00000   0.00500   116  117  118      3
   118   0.37500  -0.37500   0.29847   0.01531   90.00000   0.00000   0.00500   117  118  119      3
   119   0.37500  -0.37500   0.31378   0.01531   90.00000   0.00000   0.00500   118  119  120      3
   120   0.37500  -0.37500   0.32908   0.01531   90.00000   0.00000   0.00500   119  120  121      3
   121   0.37500  -0.37500   0.34439   0.01531   90.00000   0.00000   0.00500   120  121  122      3
   122   0.37500  -0.37500   0.35969   0.01531   90.00000   0.00000   0.00500   121  122  123      3
   123   0.37500  -0.37500   0.37500   0.01531   90.00000   0.00000   0.00500   122  123  124      3
   124   0.37500  -0.37500   0.39031   0.01531   90.00000   0.00000   0.00500   123  124  125      3
   125   0.37500  -0.37500   0.40561   0.01531   90.00000   0.00000   0.00500   124  125  126      3
   126   0.37500  -0.37500   0.42092   0.01531   90.00000   0.00000   0.00500   125  126  127      3
   127   0.37500  -0.37500   0.43622   0.01531   90.00000   0.00000   0.00500   126  127  128      3
   128   0.37500  -0.37500   0.45153   0.01531   90.00000   0.00000   0.00500   127  128  129      3
   129   0.37500  -0.37500   0.46684   0.01531   90.00000   0.00000   0.00500   128  129  130      3
   130   0.37500  -0.37500   0.48214   0.01531   90.00000   0.00000   0.00500   129  130  131      3
   131   0.37500  -0.37500   0.49745   0.01531   90.00000   0.00000   0.00500   130  131  132      3
   132   0.37500  -0.37500   0.51276   0.01531   90.00000   0.00000   0.00500   131  132  133      3
   133   0.37500  -0.37500   0.52806   0.01531   90.00000   0.00000   0.00500   132  133  134      3
   134   0.37500  -0.37500   0.54337   0.01531   90.00000   0.00000   0.00500   133  134  135      3
   135   0.37500  -0.37500   0.55867   0.01531   90.00000   0.00000   0.00500   134  135  136      3
   136   0.37500  -0.37500   0.57398   0.01531   90.00000   0.00000   0.00500   135  136  137      3
   137   0.37500  -0.37500   0.58929   0.01531   90.00000   0.00000   0.00500   136  137  138      3
   138   0.37500  -0.37500   0.60459   0.01531   90.00000   0.00000   0.00500   137  138  139      3
   139   0.37500  -0.37500   0.61990   0.01531   90.00000   0.00000   0.00500   138  139  140      3
   140   0.37500  -0.37500   0.63520   0.01531   90.00000   0.00000   0.00500   139  140  141      3
   141   0.37500  -0.37500   0.65051   0.01531   90.00000   0.00000   0.00500   140  141  142      3
   142   0.37500  -0.37500   0.66582   0.01531   90.00000   0.00000   0.00500   141  142  143      3
   143   0.37500  -0.37500   0.68112   0.01531   90.00000   0.00000   0.00500   142  143  144      3
   144   0.37500  -0.37500   0.69643   0.01531   90.00000   0.00000   0.00500   143  144  145      3
   145   0.37500  -0.37500   0.71173   0.01531   90.00000   0.00000   0.00500   144  145  146      3
   146   0.37500  -0.37500   0.72704   0.01531   90.00000   0.00000   0.00500   145  146  147      3
   147   0.37500  -0.37500   0.74235   0.01531   90.00000   0.00000   0.00500   146  147    0      3
   148   0.37500   0.37500   0.00765   0.01531   90.00000   0.00000   0.00500     0  148  149      4
   149   0.37500   0.37500   0.02296   0.01531   90.00000   0.00000   0.00500   148  149  150      4
   150   0.37500   0.37500   0.03827   0.01531   90.00000   0.00000   0.00500   149  150  151      4
   151   0.37500   0.37500   0.05357   0.01531   90.00000   0.00000   0.00500   150  151  152      4
   152   0.37500   0.37500   0.06888   0.01531   90.00000   0.00000   0.00500   151  152  153      4
   153   0.37500   0.37500   0.08418   0.01531   90.00000   0.00000   0.00500   152  153  154      4
   154   0.37500   0.37500   0.09949   0.01531   90.00000   0.00000   0.00500   153  154  155      4
   155   0.37500   0.37500   0.11480   0.01531   90.00000   0.00000   0.00500   154  155  156      4
   156   0.37500   0.37500   0.13010   0.01531   90.00000   0.00000   0.00500   155  156  157      4
   157   0.37500   0.37500   0.14541   0.01531   90.00000   0.00000   0.00500   156  157  158      4
   158   0.37500   0.37500   0.16071   0.01531   90.00000   0.00000   0.00500   157  158  159      4
   159   0.37500   0.37500   0.17602   0.01531   90.00000   0.00000   0.00500   158  159  160      4
   160   0.37500   0.37500   0.19133   0.01531   90.00000   0.00000   0.00500   159  160  161      4
   161   0.37500   0.37500   0.20663   0.01531   90.00000   0.00000   0.00500   160  161  162      4
   162   0.37500   0.37500   0.22194   0.01531   90.00000   0.00000   0.00500   161  162  163      4
   163   0.37500   0.37500   0.23724   0.01531   90.00000   0.00000   0.00500   162  163  164      4
   164   0.37500   0.37500   0.25255   0.01531   90.00000   0.00000   0.00500   163  164  165      4
   165   0.37500   0.37500   0.26786   0.01531   90.00000   0.00000   0.00500   164  165  166      4
   166   0.37500   0.37500   0.28316   0.01531   90.00000   0.00000   0.00500   165  166  167      4
   167   0.37500   0.37500   0.29847   0.01531   90.00000   0.00000   0.00500   166  167  168      4
   168   0.37500   0.37500   0.31378   0.01531   90.00000   0.00000   0.00500   167  168  169      4
   169   0.37500   0.37500   0.32908   0.01531   90.00000   0.00000   0.00500   168  169  170      4
   170   0.37500   0.37500   0.34439   0.01531   90.00000   0.00000   0.00500   169  170  171      4
   171   0.37500   0.37500   0.35969   0.01531   90.00000   0.00000   0.00500   170  171  172      4
   172   0.37500   0.37500   0.37500   0.01531   90.00000   0.00000   0.00500   171  172  173      4
   173   0.37500   0.37500   0.39031   0.01531   90.00000   0.00000   0.00500   172  173  174      4
   174   0.37500   0.37500   0.40561   0.01531   90.00000   0.00000   0.00500   173  174  175      4
   175   0.37500   0.37500   0.42092   0.01531   90.00000   0.00000   0.00500   174  175  176      4
   176   0.37500   0.37500   0.43622   0.01531   90.00000   0.00000   0.00500   175  176  177      4
   177   0.37500   0.37500   0.45153   0.01531   90.00000   0.00000   0.00500   176  177  178      4
   178   0.37500   0.37500   0.46684   0.01531   90.00000   0.00000   0.00500   177  178  179      4
   179   0.37500   0.37500   0.48214   0.01531   90.00000   0.00000   0.00500   178  179  180      4
   180   0.37500   0.37500   0.49745   0.01531   90.00000   0.00000   0.00500   179  180  181      4
   181   0.37500   0.37500   0.51276   0.01531   90.00000   0.00000   0.00500   180  181  182      4
   182   0.37500   0.37500   0.52806   0.01531   90.00000   0.00000   0.00500   181  182  183      4
   183   0.37500   0.37500   0.54337   0.01531   90.00000   0.00000   0.00500   182  183  184      4
   184   0.37500   0.37500   0.55867   0.01531   90.00000   0.00000   0.00500   183  184  185      4
   185   0.37500   0.37500   0.57398   0.01531   90.00000   0.00000   0.00500   184  185  186      4
   186   0.37500   0.37500   0.58929   0.01531   90.00000   0.00000   0.00500   185  186  187      4
   187   0.37500   0.37500   0.60459   0.01531   90.00000   0.00000   0.00500   186  187  188      4
   188   0.37500   0.37500   0.61990   0.01531   90.00000   0.00000   0.00500   187  188  189      4
   189   0.37500   0.37500   0.63520   0.01531   90.00000   0.00000   0.00500   188  189  190      4
   190   0.37500   0.37500   0.65051   0.01531   90.00000   0.00000   0.00500   189  190  191      4
   191   0.37500   0.37500   0.66582   0.01531   90.00000   0.00000   0.00500   190  191  192      4
   192   0.37500   0.37500   0.68112   0.01531   90.00000   0.00000   0.00500   191  192  193      4
   193   0.37500   0.37500   0.69643   0.01531   90.00000   0.00000   0.00500   192  193  194      4
   194   0.37500   0.37500   0.71173   0.01531   90.00000   0.00000   0.00500   193  194  195      4
   195   0.37500   0.37500   0.72704   0.01531   90.00000   0.00000   0.00500   194  195  196      4
   196   0.37500   0.37500   0.74235   0.01531   90.00000   0.00000   0.00500   195  196    0      4
   197   0.00000   0.37500   0.00765   0.01531   90.00000   0.00000   0.00500     0  197  198      5
   198   0.00000   0.37500   0.02296   0.01531   90.00000   0.00000   0.00500   197  198  199      5
   199   0.00000   0.37500   0.03827   0.01531   90.00000   0.00000   0.00500   198  199  200      5
   200   0.00000   0.37500   0.05357   0.01531   90.00000   0.00000   0.00500   199  200  201      5
   201   0.00000   0.37500   0.06888   0.01531   90.00000   0.00000   0.00500   200  201  202      5
   202   0.00000   0.37500   0.08418   0.01531   90.00000   0.00000   0.00500   201  202  203      5
   203   0.00000   0.37500   0.09949   0.01531   90.00000   0.00000   0.00500   202  203  204      5
   204   0.00000   0.37500   0.11480   0.01531   90.00000   0.00000   0.00500   203  204  205      5
   205   0.00000   0.37500   0.13010   0.01531   90.00000   0.00000   0.00500   204  205  206      5
   206   0.00000   0.37500   0.14541   0.01531   90.00000   0.00000   0.00500   205  206  207      5
   207   0.00000   0.37500   0.16071   0.01531   90.00000   0.00000   0.00500   206  207  208      5
   208   0.00000   0.37500   0.17602   0.01531   90.00000   0.00000   0.00500   207  208  209      5
   209   0.00000   0.37500   0.19133   0.01531   90.00000   0.00000   0.00500   208  209  210      5
   210   0.00000   0.37500   0.20663   0.01531   90.00000   0.00000   0.00500   209  210  211      5
   211   0.00000   0.37500   0.22194   0.01531   90.00000   0.00000   0.00500   210  211  212      5
   212   0.00000   0.37500   0.23724   0.01531   90.00000   0.00000   0.00500   211  212  213      5
   213   0.00000   0.37500   0.25255   0.01531   90.00000   0.00000   0.00500   212  213  214      5
   214   0.00000   0.37500   0.26786   0.01531   90.00000   0.00000   0.00500   213  214  215      5
   215   0.00000   0.37500   0.28316   0.01531   90.00000   0.00000   0.00500   214  215  216      5
   216   0.00000   0.37500   0.29847   0.01531   90.00000   0.00000   0.00500   215  216  217      5
   217   0.00000   0.37500   0.31378   0.01531   90.00000   0.00000   0.00500   216  217  218      5
   218   0.00000   0.37500   0.32908   0.01531   90.00000   0.00000   0.00500   217  218  219      5
   219   0.00000   0.37500   0.34439   0.01531   90.00000   0.00000   0.00500   218  219  220      5
   220   0.00000   0.37500   0.35969   0.01531   90.00000   0.00000   0.00500   219  220  221      5
   221   0.00000   0.37500   0.37500   0.01531   90.00000   0.00000   0.00500   220  221  222      5
   222   0.00000   0.37500   0.39031   0.01531   90.00000   0.00000   0.00500   221  222  223      5
   223   0.00000   0.37500   0.40561   0.01531   90.00000   0.00000   0.00500   222  223  224      5
   224   0.00000   0.37500   0.42092   0.01531   90.00000   0.00000   0.00500   223  224  225      5
   225   0.00000   0.37500   0.43622   0.01531   90.00000   0.00000   0.00500   224  225  226      5
   226   0.00000   0.37500   0.45153   0.01531   90.00000   0.00000   0.00500   225  226  227      5
   227   0.00000   0.37500   0.46684   0.01531   90.00000   0.00000   0.00500   226  227  228      5
   228   0.00000   0.37500   0.48214   0.01531   90.00000   0.00000   0.00500   227  228  229      5
   229   0.00000   0.37500   0.49745   0.01531   90.00000   0.00000   0.00500   228  229  230      5
   230   0.00000   0.37500   0.51276   0.01531   90.00000   0.00000   0.00500   229  230  231      5
   231   0.00000   0.37500   0.52806   0.01531   90.00000   0.00000   0.00500   230  231  232      5
   232   0.00000   0.37500   0.54337   0.01531   90.00000   0.00000   0.00500   231  232  233      5
   233   0.00000   0.37500   0.55867   0.01531   90.00000   0.00000   0.00500   232  233  234      5
   234   0.00000   0.37500   0.57398   0.01531   90.00000   0.00000   0.00500   233  234  235      5
   235   0.00000   0.37500   0.58929   0.01531   90.00000   0.00000   0.00500   234  235  236      5
   236   0.00000   0.37500   0.60459   0.01531   90.00000   0.00000   0.00500   235  236  237      5
   237   0.00000   0.37500   0.61990   0.01531   90.00000   0.00000   0.00500   236  237  238      5
   238   0.00000   0.37500   0.63520   0.01531   90.00000   0.00000   0.00500   237  238  239      5
   239   0.00000   0.37500   0.65051   0.01531   90.00000   0.00000   0.00500   238  239  240      5
   240   0.00000   0.37500   0.66582   0.01531   90.00000   0.00000   0.00500   239  240  241      5
   241   0.00000   0.37500   0.68112   0.01531   90.00000   0.00000   0.00500   240  241  242      5
   242   0.00000   0.37500   0.69643   0.01531   90.00000   0.00000   0.00500   241  242  243      5
   243   0.00000   0.37500   0.71173   0.01531   90.00000   0.00000   0.00500   242  243  244      5
   244   0.00000   0.37500   0.72704   0.01531   90.00000   0.00000   0.00500   243  244  245      5
   245   0.00000   0.37500   0.74235   0.01531   90.00000   0.00000   0.00500   244  245    0      5
   246  -0.37500   0.37500   0.00765   0.01531   90.00000   0.00000   0.00500     0  246  247      6
   247  -0.37500   0.37500   0.02296   0.01531   90.00000   0.00000   0.00500   246  247  248      6
   248  -0.37500   0.37500   0.03827   0.01531   90.00000   0.00000   0.00500   247  248  249      6
   249  -0.37500   0.37500   0.05357   0.01531   90.00000   0.00000   0.00500   248  249  250      6
   250  -0.37500   0.37500   0.06888   0.01531   90.00000   0.00000   0.00500   249  250  251      6
   251  -0.37500   0.37500   0.08418   0.01531   90.00000   0.00000   0.00500   250  251  252      6
   252  -0.37500   0.37500   0.09949   0.01531   90.00000   0.00000   0.00500   251  252  253      6
   253  -0.37500   0.37500   0.11480   0.01531   90.00000   0.00000   0.00500   252  253  254      6
   254  -0.37500   0.37500   0.13010   0.01531   90.00000   0.00000   0.00500   253  254  255      6
   255  -0.37500   0.37500   0.14541   0.01531   90.00000   0.00000   0.00500   254  255  256      6
   256  -0.37500   0.37500   0.16071   0.01531   90.00000   0.00000   0.00500   255  256  257      6
   257  -0.37500   0.37500   0.17602   0.01531   90.00000   0.00000   0.00500   256  257  258      6
   258  -0.37500   0.37500   0.19133   0.01531   90.00000   0.00000   0.00500   257  258  259      6
   259  -0.37500   0.37500   0.20663   0.01531   90.00000   0.00000   0.00500   258  259  260      6
   260  -0.37500   0.37500   0.22194   0.01531   90.00000   0.00000   0.00500   259  260  261      6
   261  -0.37500   0.37500   0.23724   0.01531   90.00000   0.00000   0.00500   260  261  262      6
   262  -0.37500   0.37500   0.25255   0.01531   90.00000   0.00000   0.00500   261  262  263      6
   263  -0.37500   0.37500   0.26786   0.01531   90.00000   0.00000   0.00500   262  263  264      6
   264  -0.37500   0.37500   0.28316   0.01531   90.00000   0.00000   0.00500   263  264  265      6
   265  -0.37500   0.37500   0.29847   0.01531   90.00000   0.00000   0.00500   264  265  266      6
   266  -0.37500   0.37500   0.31378   0.01531   90.00000   0.00000   0.00500   265  266  267      6
   267  -0.37500   0.37500   0.32908   0.01531   90.00000   0.00000   0.00500   266  267  268      6
   268  -0.37500   0.37500   0.34439   0.01531   90.00000   0.00000   0.00500   267  268  269      6
   269  -0.37500   0.37500   0.35969   0.01531   90.00000   0.00000   0.00500   268  269  270      6
   270  -0.37500   0.37500   0.37500   0.01531   90.00000   0.00000   0.00500   269  270  271      6
   271  -0.37500   0.37500   0.39031   0.01531   90.00000   0.00000   0.00500   270  271  272      6
   272  -0.37500   0.37500   0.40561   0.01531   90.00000   0.00000   0.00500   271  272  273      6
   273  -0.37500   0.37500   0.42092   0.01531   90.00000   0.00000   0.00500   272  273  274      6
   274  -0.37500   0.37500   0.43622   0.01531   90.00000   0.00000   0.00500   273  274  275      6
   275  -0.37500   0.37500   0.45153   0.01531   90.00000   0.00000   0.00500   274  275  276      6
   276  -0.37500   0.37500   0.46684   0.01531   90.00000   0.00000   0.00500   275  276  277      6
   277  -0.37500   0.37500   0.48214   0.01531   90.00000   0.00000   0.00500   276  277  278      6
   278  -0.37500   0.37500   0.49745   0.01531   90.00000   0.00000   0.00500   277  278  279      6
   279  -0.37500   0.37500   0.51276   0.01531   90.00000   0.00000   0.00500   278  279  280      6
   280  -0.37500   0.37500   0.52806   0.01531   90.00000   0.00000   0.00500   279  280  281      6
   281  -0.37500   0.37500   0.54337   0.01531   90.00000   0.00000   0.00500   280  281  282      6
   282  -0.37500   0.37500   0.55867   0.01531   90.00000   0.00000   0.00500   281  282  283      6
   283  -0.37500   0.37500   0.57398   0.01531   90.00000   0.00000   0.00500   282  283  284      6
   284  -0.37500   0.37500   0.58929   0.01531   90.00000   0.00000   0.00500   283  284  285      6
   285  -0.37500   0.37500   0.60459   0.01531   90.00000   0.00000   0.00500   284  285  286      6
   286  -0.37500   0.37500   0.61990   0.01531   90.00000   0.00000   0.00500   285  286  287      6
   287  -0.37500   0.37500   0.63520   0.01531   90.00000   0.00000   0.00500   286  287  288      6
   288  -0.37500   0.37500   0.65051   0.01531   90.00000   0.00000   0.00500   287  288  289      6
   289  -0.37500   0.37500   0.66582   0.01531   90.00000   0.00000   0.00500   288  289  290      6
   290  -0.37500   0.37500   0.68112   0.01531   90.00000   0.00000   0.00500   289  290  291      6
   291  -0.37500   0.37500   0.69643   0.01531   90.00000   0.00000   0.00500   290  291  292      6
   292  -0.37500   0.37500   0.71173   0.01531   90.00000   0.00000   0.00500   291  292  293      6
   293  -0.37500   0.37500   0.72704   0.01531   90.00000   0.00000   0.00500   292  293  294      6
   294  -0.37500   0.37500   0.74235   0.01531   90.00000   0.00000   0.00500   293  294    0      6






 ***** DATA CARD NO.  1   GN  -1     0     0     0  0.00000E+00  0.00000E+00  0.00000E+00  0.00000E+00  0.00000E+00  0.00000E+00
 ***** DATA CARD NO.  2   EK   0     0     0     0  0.00000E+00  0.00000E+00  0.00000E+00  0.00000E+00  0.00000E+00  0.00000E+00
 ***** DATA CARD NO.  3   EX   0     1    25     0  1.00000E+00  0.00000E+00  0.00000E+00  0.00000E+00  0.00000E+00  0.00000E+00
 ***** DATA CARD NO.  4   FR   0     0     0     0  2.00000E+02  0.00000E+00  0.00000E+00  0.00000E+00  0.00000E+00  0.00000E+00
 ***** DATA CARD NO.  5   XQ   0     0     0     0  0.00000E+00  0.00000E+00  0.00000E+00  0.00000E+00  0.00000E+00  0.00000E+00




                                 - - - - - - FREQUENCY - - - - - -

                                    FREQUENCY= 2.0000E+02 MHZ
                                    WAVELENGTH= 1.4990E+00 METERS




                    APPROXIMATE INTEGRATION EMPLOYED FOR SEGMENTS MORE THAN   1.000 WAVELENGTHS APART

                    THE EXTENDED THIN WIRE KERNEL WILL BE USED



                               - - - STRUCTURE IMPEDANCE LOADING - - -

                                   THIS STRUCTURE IS NOT LOADED



                                  - - - ANTENNA ENVIRONMENT - - -

                                            FREE SPACE



                                - - - MATRIX TIMING - - -

                        FILL=    0.172 SEC.,  FACTOR=    0.047 SEC.



                                          - - - ANTENNA INPUT PARAMETERS - - -

   TAG   SEG.    VOLTAGE (VOLTS)         CURRENT (AMPS)         IMPEDANCE (OHMS)        ADMITTANCE (MHOS)      POWER
   NO.   NO.    REAL        IMAG.       REAL        IMAG.       REAL        IMAG.       REAL        IMAG.     (WATTS)
     1    25 1.00000E+00 0.00000E+00 3.09421E-03-4.68714E-03 9.80937E+01 1.48593E+02 3.09421E-03-4.68714E-03 1.54711E-03



                             - - - CURRENTS AND LOCATION - - -

                                 DISTANCES IN WAVELENGTHS


  SEG.  TAG    COORD. OF SEG. CENTER     SEG.            - - - CURRENT (AMPS) - - -
  NO.   NO.     X        Y        Z      LENGTH     REAL        IMAG.       MAG.        PHASE
     1    1   0.0000   0.0000   0.0051  0.01021   2.4351E-04 -5.8517E-04  6.3381E-04  -67.406
     2    1   0.0000   0.0000   0.0153  0.01021   4.8860E-04 -1.1635E-03  1.2619E-03  -67.220
     3    1   0.0000   0.0000   0.0255  0.01021   6.9923E-04 -1.6496E-03  1.7917E-03  -67.029
     4    1   0.0000   0.0000   0.0357  0.01021   8.9731E-04 -2.0972E-03  2.2811E-03  -66.836
     5    1   0.0000   0.0000   0.0459  0.01021   1.0860E-03 -2.5143E-03  2.7388E-03  -66.639
     6    1   0.0000   0.0000   0.0562  0.01021   1.2669E-03 -2.9046E-03  3.1689E-03  -66.435
     7    1   0.0000   0.0000   0.0664  0.01021   1.4404E-03 -3.2697E-03  3.5729E-03  -66.224
     8    1   0.0000   0.0000   0.0766  0.01021   1.6069E-03 -3.6099E-03  3.9513E-03  -66.005
     9    1   0.0000   0.0000   0.0868  0.01021   1.7660E-03 -3.9251E-03  4.3041E-03  -65.775
    10    1   0.0000   0.0000   0.0970  0.01021   1.9178E-03 -4.2149E-03  4.6307E-03  -65.535
    11    1   0.0000   0.0000   0.1072  0.01021   2.0618E-03 -4.4787E-03  4.9305E-03  -65.281
    12    1   0.0000   0.0000   0.1174  0.01021   2.1977E-03 -4.7158E-03  5.2028E-03  -65.013
    13    1   0.0000   0.0000   0.1276  0.01021   2.3253E-03 -4.9254E-03  5.4467E-03  -64.728
    14    1   0.0000   0.0000   0.1378  0.01021   2.4441E-03 -5.1067E-03  5.6614E-03  -64.424
    15    1   0.0000   0.0000   0.1481  0.01021   2.5539E-03 -5.2588E-03  5.8461E-03  -64.097
    16    1   0.0000   0.0000   0.1583  0.01021   2.6543E-03 -5.3809E-03  5.9999E-03  -63.743
    17    1   0.0000   0.0000   0.1685  0.01021   2.7450E-03 -5.4720E-03  6.1219E-03  -63.359
    18    1   0.0000   0.0000   0.1787  0.01021   2.8258E-03 -5.5311E-03  6.2112E-03  -62.938
    19    1   0.0000   0.0000   0.1889  0.01021   2.8963E-03 -5.5570E-03  6.2665E-03  -62.472
    20    1   0.0000   0.0000   0.1991  0.01021   2.9564E-03 -5.5481E-03  6.2866E-03  -61.949
    21    1   0.0000   0.0000   0.2093  0.01021   3.0058E-03 -5.5019E-03  6.2694E-03  -61.352
    22    1   0.0000   0.0000   0.2195  0.01021   3.0444E-03 -5.4143E-03  6.2115E-03  -60.652
    23    1   0.0000   0.0000   0.2297  0.01021   3.0720E-03 -5.2780E-03  6.1070E-03  -59.799
    24    1   0.0000   0.0000   0.2400  0.01021   3.0887E-03 -5.0511E-03  5.9206E-03  -58.555
    25    1   0.0000   0.0000   0.2502  0.01021   3.0942E-03 -4.6871E-03  5.6164E-03  -56.569
    26    1   0.0000   0.0000   0.2604  0.01021   3.0887E-03 -5.0511E-03  5.9206E-03  -58.555
    27    1   0.0000   0.0000   0.2706  0.01021   3.0720E-03 -5.2780E-03  6.1070E-03  -59.799
    28    1   0.0000   0.0000   0.2808  0.01021   3.0444E-03 -5.4143E-03  6.2115E-03  -60.652
    29    1   0.0000   0.0000   0.2910  0.01021   3.0058E-03 -5.5019E-03  6.2694E-03  -61.352
    30    1   0.0000   0.0000   0.3012  0.01021   2.9564E-03 -5.5481E-03  6.2866E-03  -61.949
    31    1   0.0000   0.0000   0.3114  0.01021   2.8963E-03 -5.5570E-03  6.2665E-03  -62.472
    32    1   0.0000   0.0000   0.3216  0.01021   2.8258E-03 -5.5311E-03  6.2112E-03  -62.938
    33    1   0.0000   0.0000   0.3319  0.01021   2.7450E-03 -5.4720E-03  6.1219E-03  -63.359
    34    1   0.0000   0.0000   0.3421  0.01021   2.6543E-03 -5.3809E-03  5.9999E-03  -63.743
    35    1   0.0000   0.0000   0.3523  0.01021   2.5539E-03 -5.2588E-03  5.8461E-03  -64.097
    36    1   0.0000   0.0000   0.3625  0.01021   2.4441E-03 -5.1067E-03  5.6614E-03  -64.424
    37    1   0.0000   0.0000   0.3727  0.01021   2.3253E-03 -4.9254E-03  5.4467E-03  -64.728
    38    1   0.0000   0.0000   0.3829  0.01021   2.1977E-03 -4.7158E-03  5.2028E-03  -65.013
    39    1   0.0000   0.0000   0.3931  0.01021   2.0618E-03 -4.4787E-03  4.9305E-03  -65.281
    40    1   0.0000   0.0000   0.4033  0.01021   1.9178E-03 -4.2149E-03  4.6307E-03  -65.535
    41    1   0.0000   0.0000   0.4135  0.01021   1.7660E-03 -3.9251E-03  4.3041E-03  -65.775
    42    1   0.0000   0.0000   0.4238  0.01021   1.6069E-03 -3.6099E-03  3.9513E-03  -66.005
    43    1   0.0000   0.0000   0.4340  0.01021   1.4404E-03 -3.2697E-03  3.5729E-03  -66.224
    44    1   0.0000   0.0000   0.4442  0.01021   1.2669E-03 -2.9046E-03  3.1689E-03  -66.435
    45    1   0.0000   0.0000   0.4544  0.01021   1.0860E-03 -2.5143E-03  2.7388E-03  -66.639
    46    1   0.0000   0.0000   0.4646  0.01021   8.9731E-04 -2.0972E-03  2.2811E-03  -66.836
    47    1   0.0000   0.0000   0.4748  0.01021   6.9923E-04 -1.6496E-03  1.7917E-03  -67.029
    48    1   0.0000   0.0000   0.4850  0.01021   4.8860E-04 -1.1635E-03  1.2619E-03  -67.220
    49    1   0.0000   0.0000   0.4952  0.01021   2.4351E-04 -5.8517E-04  6.3381E-04  -67.406
    50    2   0.2502   0.0000   0.0051  0.01021  -5.2641E-06  2.7979E-04  2.7984E-04   91.078
    51    2   0.2502   0.0000   0.0153  0.01021  -1.0870E-05  5.6110E-04  5.6121E-04   91.110
    52    2   0.2502   0.0000   0.0255  0.01021  -1.5992E-05  8.0258E-04  8.0274E-04   91.142
    53    2   0.2502   0.0000   0.0357  0.01021  -2.1064E-05  1.0295E-03  1.0297E-03   91.172
    54    2   0.2502   0.0000   0.0459  0.01021  -2.6131E-05  1.2455E-03  1.2457E-03   91.202
    55    2   0.2502   0.0000   0.0562  0.01021  -3.1205E-05  1.4523E-03  1.4527E-03   91.231
    56    2   0.2502   0.0000   0.0664  0.01021  -3.6275E-05  1.6507E-03  1.6511E-03   91.259
    57    2   0.2502   0.0000   0.0766  0.01021  -4.1319E-05  1.8408E-03  1.8413E-03   91.286
    58    2   0.2502   0.0000   0.0868  0.01021  -4.6312E-05  2.0225E-03  2.0231E-03   91.312
    59    2   0.2502   0.0000   0.0970  0.01021  -5.1223E-05  2.1957E-03  2.1963E-03   91.336
    60    2   0.2502   0.0000   0.1072  0.01021  -5.6020E-05  2.3599E-03  2.3606E-03   91.360
    61    2   0.2502   0.0000   0.1174  0.01021  -6.0669E-05  2.5149E-03  2.5156E-03   91.382
    62    2   0.2502   0.0000   0.1276  0.01021  -6.5137E-05  2.6603E-03  2.6611E-03   91.403
    63    2   0.2502   0.0000   0.1378  0.01021  -6.9390E-05  2.7957E-03  2.7965E-03   91.422
    64    2   0.2502   0.0000   0.1481  0.01021  -7.3396E-05  2.9207E-03  2.9216E-03   91.440
    65    2   0.2502   0.0000   0.1583  0.01021  -7.7123E-05  3.0349E-03  3.0359E-03   91.456
    66    2   0.2502   0.0000   0.1685  0.01021  -8.0543E-05  3.1381E-03  3.1392E-03   91.470
    67    2   0.2502   0.0000   0.1787  0.01021  -8.3628E-05  3.2299E-03  3.2310E-03   91.483
    68    2   0.2502   0.0000   0.1889  0.01021  -8.6354E-05  3.3101E-03  3.3112E-03   91.494
    69    2   0.2502   0.0000   0.1991  0.01021  -8.8699E-05  3.3784E-03  3.3795E-03   91.504
    70    2   0.2502   0.0000   0.2093  0.01021  -9.0644E-05  3.4345E-03  3.4357E-03   91.512
    71    2   0.2502   0.0000   0.2195  0.01021  -9.2173E-05  3.4784E-03  3.4796E-03   91.518
    72    2   0.2502   0.0000   0.2297  0.01021  -9.3274E-05  3.5098E-03  3.5111E-03   91.522
    73    2   0.2502   0.0000   0.2400  0.01021  -9.3939E-05  3.5287E-03  3.5300E-03   91.525
    74    2   0.2502   0.0000   0.2502  0.01021  -9.4161E-05  3.5350E-03  3.5363E-03   91.526
    75    2   0.2502   0.0000   0.2604  0.01021  -9.3939E-05  3.5287E-03  3.5300E-03   91.525
    76    2   0.2502   0.0000   0.2706  0.01021  -9.3274E-05  3.5098E-03  3.5111E-03   91.522
    77    2   0.2502   0.0000   0.2808  0.01021  -9.2173E-05  3.4784E-03  3.4796E-03   91.518
    78    2   0.2502   0.0000   0.2910  0.01021  -9.0644E-05  3.4345E-03  3.4357E-03   91.512
    79    2   0.2502   0.0000   0.3012  0.01021  -8.8699E-05  3.3784E-03  3.3795E-03   91.504
    80    2   0.2502   0.0000   0.3114  0.01021  -8.6354E-05  3.3101E-03  3.3112E-03   91.494
    81    2   0.2502   0.0000   0.3216  0.01021  -8.3628E-05  3.2299E-03  3.2310E-03   91.483
    82    2   0.2502   0.0000   0.3319  0.01021  -8.0543E-05  3.1381E-03  3.1392E-03   91.470
    83    2   0.2502   0.0000   0.3421  0.01021  -7.7123E-05  3.0349E-03  3.0359E-03   91.456
    84    2   0.2502   0.0000   0.3523  0.01021  -7.3396E-05  2.9207E-03  2.9216E-03   91.440
    85    2   0.2502   0.0000   0.3625  0.01021  -6.9390E-05  2.7957E-03  2.7965E-03   91.422
    86    2   0.2502   0.0000   0.3727  0.01021  -6.5137E-05  2.6603E-03  2.6611E-03   91.403
    87    2   0.2502   0.0000   0.3829  0.01021  -6.0669E-05  2.5149E-03  2.5156E-03   91.382
    88    2   0.2502   0.0000   0.3931  0.01021  -5.6020E-05  2.3599E-03  2.3606E-03   91.360
    89    2   0.2502   0.0000   0.4033  0.01021  -5.1223E-05  2.1957E-03  2.1963E-03   91.336
    90    2   0.2502   0.0000   0.4135  0.01021  -4.6312E-05  2.0225E-03  2.0231E-03   91.312
    91    2   0.2502   0.0000   0.4238  0.01021  -4.1319E-05  1.8408E-03  1.8413E-03   91.286
    92    2   0.2502   0.0000   0.4340  0.01021  -3.6275E-05  1.6507E-03  1.6511E-03   91.259
    93    2   0.2502   0.0000   0.4442  0.01021  -3.1205E-05  1.4523E-03  1.4527E-03   91.231
    94    2   0.2502   0.0000   0.4544  0.01021  -2.6131E-05  1.2455E-03  1.2457E-03   91.202
    95    2   0.2502   0.0000   0.4646  0.01021  -2.1064E-05  1.0295E-03  1.0297E-03   91.172
    96    2   0.2502   0.0000   0.4748  0.01021  -1.5992E-05  8.0258E-04  8.0274E-04   91.142
    97    2   0.2502   0.0000   0.4850  0.01021  -1.0870E-05  5.6110E-04  5.6121E-04   91.110
    98    2   0.2502   0.0000   0.4952  0.01021  -5.2641E-06  2.7979E-04  2.7984E-04   91.078
    99    3   0.2502  -0.2502   0.0051  0.01021   9.0424E-05  1.2489E-04  1.5419E-04   54.095
   100    3   0.2502  -0.2502   0.0153  0.01021   1.8126E-04  2.4996E-04  3.0876E-04   54.053
   101    3   0.2502  -0.2502   0.0255  0.01021   2.5915E-04  3.5685E-04  4.4102E-04   54.013
   102    3   0.2502  -0.2502   0.0357  0.01021   3.3226E-04  4.5690E-04  5.6494E-04   53.975
   103    3   0.2502  -0.2502   0.0459  0.01021   4.0180E-04  5.5182E-04  6.8261E-04   53.940
   104    3   0.2502  -0.2502   0.0562  0.01021   4.6834E-04  6.4243E-04  7.9503E-04   53.907
   105    3   0.2502  -0.2502   0.0664  0.01021   5.3211E-04  7.2907E-04  9.0260E-04   53.876
   106    3   0.2502  -0.2502   0.0766  0.01021   5.9316E-04  8.1186E-04  1.0055E-03   53.847
   107    3   0.2502  -0.2502   0.0868  0.01021   6.5148E-04  8.9079E-04  1.1036E-03   53.820
   108    3   0.2502  -0.2502   0.0970  0.01021   7.0701E-04  9.6582E-04  1.1969E-03   53.795
   109    3   0.2502  -0.2502   0.1072  0.01021   7.5966E-04  1.0368E-03  1.2853E-03   53.771
   110    3   0.2502  -0.2502   0.1174  0.01021   8.0931E-04  1.1037E-03  1.3686E-03   53.749
   111    3   0.2502  -0.2502   0.1276  0.01021   8.5586E-04  1.1663E-03  1.4467E-03   53.728
   112    3   0.2502  -0.2502   0.1378  0.01021   8.9919E-04  1.2245E-03  1.5192E-03   53.710
   113    3   0.2502  -0.2502   0.1481  0.01021   9.3918E-04  1.2782E-03  1.5862E-03   53.693
   114    3   0.2502  -0.2502   0.1583  0.01021   9.7573E-04  1.3272E-03  1.6473E-03   53.678
   115    3   0.2502  -0.2502   0.1685  0.01021   1.0087E-03  1.3714E-03  1.7024E-03   53.664
   116    3   0.2502  -0.2502   0.1787  0.01021   1.0381E-03  1.4107E-03  1.7515E-03   53.652
   117    3   0.2502  -0.2502   0.1889  0.01021   1.0637E-03  1.4450E-03  1.7943E-03   53.642
   118    3   0.2502  -0.2502   0.1991  0.01021   1.0855E-03  1.4742E-03  1.8307E-03   53.633
   119    3   0.2502  -0.2502   0.2093  0.01021   1.1035E-03  1.4981E-03  1.8607E-03   53.626
   120    3   0.2502  -0.2502   0.2195  0.01021   1.1175E-03  1.5168E-03  1.8840E-03   53.620
   121    3   0.2502  -0.2502   0.2297  0.01021   1.1275E-03  1.5302E-03  1.9008E-03   53.616
   122    3   0.2502  -0.2502   0.2400  0.01021   1.1336E-03  1.5383E-03  1.9109E-03   53.614
   123    3   0.2502  -0.2502   0.2502  0.01021   1.1356E-03  1.5410E-03  1.9142E-03   53.613
   124    3   0.2502  -0.2502   0.2604  0.01021   1.1336E-03  1.5383E-03  1.9109E-03   53.614
   125    3   0.2502  -0.2502   0.2706  0.01021   1.1275E-03  1.5302E-03  1.9008E-03   53.616
   126    3   0.2502  -0.2502   0.2808  0.01021   1.1175E-03  1.5168E-03  1.8840E-03   53.620
   127    3   0.2502  -0.2502   0.2910  0.01021   1.1035E-03  1.4981E-03  1.8607E-03   53.626
   128    3   0.2502  -0.2502   0.3012  0.01021   1.0855E-03  1.4742E-03  1.8307E-03   53.633
   129    3   0.2502  -0.2502   0.3114  0.01021   1.0637E-03  1.4450E-03  1.7943E-03   53.642
   130    3   0.2502  -0.2502   0.3216  0.01021   1.0381E-03  1.4107E-03  1.7515E-03   53.652
   131    3   0.2502  -0.2502   0.3319  0.01021   1.0087E-03  1.3714E-03  1.7024E-03   53.664
   132    3   0.2502  -0.2502   0.3421  0.01021   9.7573E-04  1.3272E-03  1.6473E-03   53.678
   133    3   0.2502  -0.2502   0.3523  0.01021   9.3918E-04  1.2782E-03  1.5862E-03   53.693
   134    3   0.2502  -0.2502   0.3625  0.01021   8.9919E-04  1.2245E-03  1.5192E-03   53.710
   135    3   0.2502  -0.2502   0.3727  0.01021   8.5586E-04  1.1663E-03  1.4467E-03   53.728
   136    3   0.2502  -0.2502   0.3829  0.01021   8.0931E-04  1.1037E-03  1.3686E-03   53.749
   137    3   0.2502  -0.2502   0.3931  0.01021   7.5966E-04  1.0368E-03  1.2853E-03   53.771
   138    3   0.2502  -0.2502   0.4033  0.01021   7.0701E-04  9.6582E-04  1.1969E-03   53.795
   139    3   0.2502  -0.2502   0.4135  0.01021   6.5148E-04  8.9079E-04  1.1036E-03   53.820
   140    3   0.2502  -0.2502   0.4238  0.01021   5.9316E-04  8.1186E-04  1.0055E-03   53.847
   141    3   0.2502  -0.2502   0.4340  0.01021   5.3211E-04  7.2907E-04  9.0260E-04   53.876
   142    3   0.2502  -0.2502   0.4442  0.01021   4.6834E-04  6.4243E-04  7.9503E-04   53.907
   143    3   0.2502  -0.2502   0.4544  0.01021   4.0180E-04  5.5182E-04  6.8261E-04   53.940
   144    3   0.2502  -0.2502   0.4646  0.01021   3.3226E-04  4.5690E-04  5.6494E-04   53.975
   145    3   0.2502  -0.2502   0.4748  0.01021   2.5915E-04  3.5685E-04  4.4102E-04   54.013
   146    3   0.2502  -0.2502   0.4850  0.01021   1.8126E-04  2.4996E-04  3.0876E-04   54.053
   147    3   0.2502  -0.2502   0.4952  0.01021   9.0424E-05  1.2489E-04  1.5419E-04   54.095
   148    4   0.2502   0.2502   0.0051  0.01021  -3.8757E-05  6.5400E-05  7.6022E-05  120.651
   149    4   0.2502   0.2502   0.0153  0.01021  -7.7805E-05  1.3032E-04  1.5178E-04  120.839
   150    4   0.2502   0.2502   0.0255  0.01021  -1.1140E-04  1.8525E-04  2.1616E-04  121.022
   151    4   0.2502   0.2502   0.0357  0.01021  -1.4304E-04  2.3621E-04  2.7614E-04  121.197
   152    4   0.2502   0.2502   0.0459  0.01021  -1.7321E-04  2.8414E-04  3.3278E-04  121.367
   153    4   0.2502   0.2502   0.0562  0.01021  -2.0217E-04  3.2953E-04  3.8660E-04  121.530
   154    4   0.2502   0.2502   0.0664  0.01021  -2.3000E-04  3.7258E-04  4.3786E-04  121.687
   155    4   0.2502   0.2502   0.0766  0.01021  -2.5671E-04  4.1342E-04  4.8663E-04  121.838
   156    4   0.2502   0.2502   0.0868  0.01021  -2.8229E-04  4.5207E-04  5.3297E-04  121.982
   157    4   0.2502   0.2502   0.0970  0.01021  -3.0671E-04  4.8856E-04  5.7685E-04  122.120
   158    4   0.2502   0.2502   0.1072  0.01021  -3.2991E-04  5.2287E-04  6.1825E-04  122.250
   159    4   0.2502   0.2502   0.1174  0.01021  -3.5184E-04  5.5500E-04  6.5712E-04  122.373
   160    4   0.2502   0.2502   0.1276  0.01021  -3.7244E-04  5.8490E-04  6.9341E-04  122.487
   161    4   0.2502   0.2502   0.1378  0.01021  -3.9165E-04  6.1255E-04  7.2705E-04  122.594
   162    4   0.2502   0.2502   0.1481  0.01021  -4.0941E-04  6.3792E-04  7.5800E-04  122.692
   163    4   0.2502   0.2502   0.1583  0.01021  -4.2567E-04  6.6098E-04  7.8619E-04  122.782
   164    4   0.2502   0.2502   0.1685  0.01021  -4.4037E-04  6.8170E-04  8.1157E-04  122.862
   165    4   0.2502   0.2502   0.1787  0.01021  -4.5347E-04  7.0005E-04  8.3409E-04  122.934
   166    4   0.2502   0.2502   0.1889  0.01021  -4.6491E-04  7.1601E-04  8.5370E-04  122.996
   167    4   0.2502   0.2502   0.1991  0.01021  -4.7467E-04  7.2955E-04  8.7037E-04  123.049
   168    4   0.2502   0.2502   0.2093  0.01021  -4.8269E-04  7.4065E-04  8.8406E-04  123.093
   169    4   0.2502   0.2502   0.2195  0.01021  -4.8897E-04  7.4931E-04  8.9474E-04  123.127
   170    4   0.2502   0.2502   0.2297  0.01021  -4.9346E-04  7.5550E-04  9.0238E-04  123.151
   171    4   0.2502   0.2502   0.2400  0.01021  -4.9617E-04  7.5922E-04  9.0697E-04  123.166
   172    4   0.2502   0.2502   0.2502  0.01021  -4.9707E-04  7.6046E-04  9.0850E-04  123.171
   173    4   0.2502   0.2502   0.2604  0.01021  -4.9617E-04  7.5922E-04  9.0697E-04  123.166
   174    4   0.2502   0.2502   0.2706  0.01021  -4.9346E-04  7.5550E-04  9.0238E-04  123.151
   175    4   0.2502   0.2502   0.2808  0.01021  -4.8897E-04  7.4931E-04  8.9474E-04  123.127
   176    4   0.2502   0.2502   0.2910  0.01021  -4.8269E-04  7.4065E-04  8.8406E-04  123.093
   177    4   0.2502   0.2502   0.3012  0.01021  -4.7467E-04  7.2955E-04  8.7037E-04  123.049
   178    4   0.2502   0.2502   0.3114  0.01021  -4.6491E-04  7.1601E-04  8.5370E-04  122.996
   179    4   0.2502   0.2502   0.3216  0.01021  -4.5347E-04  7.0005E-04  8.3409E-04  122.934
   180    4   0.2502   0.2502   0.3319  0.01021  -4.4037E-04  6.8170E-04  8.1157E-04  122.862
   181    4   0.2502   0.2502   0.3421  0.01021  -4.2567E-04  6.6098E-04  7.8619E-04  122.782
   182    4   0.2502   0.2502   0.3523  0.01021  -4.0941E-04  6.3792E-04  7.5800E-04  122.692
   183    4   0.2502   0.2502   0.3625  0.01021  -3.9165E-04  6.1255E-04  7.2705E-04  122.594
   184    4   0.2502   0.2502   0.3727  0.01021  -3.7244E-04  5.8490E-04  6.9341E-04  122.487
   185    4   0.2502   0.2502   0.3829  0.01021  -3.5184E-04  5.5500E-04  6.5712E-04  122.373
   186    4   0.2502   0.2502   0.3931  0.01021  -3.2991E-04  5.2287E-04  6.1825E-04  122.250
   187    4   0.2502   0.2502   0.4033  0.01021  -3.0671E-04  4.8856E-04  5.7685E-04  122.120
   188    4   0.2502   0.2502   0.4135  0.01021  -2.8229E-04  4.5207E-04  5.3297E-04  121.982
   189    4   0.2502   0.2502   0.4238  0.01021  -2.5671E-04  4.1342E-04  4.8663E-04  121.838
   190    4   0.2502   0.2502   0.4340  0.01021  -2.3000E-04  3.7258E-04  4.3786E-04  121.687
   191    4   0.2502   0.2502   0.4442  0.01021  -2.0217E-04  3.2953E-04  3.8660E-04  121.530
   192    4   0.2502   0.2502   0.4544  0.01021  -1.7321E-04  2.8414E-04  3.3278E-04  121.367
   193    4   0.2502   0.2502   0.4646  0.01021  -1.4304E-04  2.3621E-04  2.7614E-04  121.197
   194    4   0.2502   0.2502   0.4748  0.01021  -1.1140E-04  1.8525E-04  2.1616E-04  121.022
   195    4   0.2502   0.2502   0.4850  0.01021  -7.7805E-05  1.3032E-04  1.5178E-04  120.839
   196    4   0.2502   0.2502   0.4952  0.01021  -3.8757E-05  6.5400E-05  7.6022E-05  120.651
   197    5   0.0000   0.2502   0.0051  0.01021  -5.2641E-06  2.7979E-04  2.7984E-04   91.078
   198    5   0.0000   0.2502   0.0153  0.01021  -1.0870E-05  5.6110E-04  5.6121E-04   91.110
   199    5   0.0000   0.2502   0.0255  0.01021  -1.5992E-05  8.0258E-04  8.0274E-04   91.142
   200    5   0.0000   0.2502   0.0357  0.01021  -2.1064E-05  1.0295E-03  1.0297E-03   91.172
   201    5   0.0000   0.2502   0.0459  0.01021  -2.6131E-05  1.2455E-03  1.2457E-03   91.202
   202    5   0.0000   0.2502   0.0562  0.01021  -3.1205E-05  1.4523E-03  1.4527E-03   91.231
   203    5   0.0000   0.2502   0.0664  0.01021  -3.6275E-05  1.6507E-03  1.6511E-03   91.259
   204    5   0.0000   0.2502   0.0766  0.01021  -4.1319E-05  1.8408E-03  1.8413E-03   91.286
   205    5   0.0000   0.2502   0.0868  0.01021  -4.6312E-05  2.0225E-03  2.0231E-03   91.312
   206    5   0.0000   0.2502   0.0970  0.01021  -5.1223E-05  2.1957E-03  2.1963E-03   91.336
   207    5   0.0000   0.2502   0.1072  0.01021  -5.6020E-05  2.3599E-03  2.3606E-03   91.360
   208    5   0.0000   0.2502   0.1174  0.01021  -6.0669E-05  2.5149E-03  2.5156E-03   91.382
   209    5   0.0000   0.2502   0.1276  0.01021  -6.5137E-05  2.6603E-03  2.6611E-03   91.403
   210    5   0.0000   0.2502   0.1378  0.01021  -6.9390E-05  2.7957E-03  2.7965E-03   91.422
   211    5   0.0000   0.2502   0.1481  0.01021  -7.3396E-05  2.9207E-03  2.9216E-03   91.440
   212    5   0.0000   0.2502   0.1583  0.01021  -7.7123E-05  3.0349E-03  3.0359E-03   91.456
   213    5   0.0000   0.2502   0.1685  0.01021  -8.0543E-05  3.1381E-03  3.1392E-03   91.470
   214    5   0.0000   0.2502   0.1787  0.01021  -8.3628E-05  3.2299E-03  3.2310E-03   91.483
   215    5   0.0000   0.2502   0.1889  0.01021  -8.6354E-05  3.3101E-03  3.3112E-03   91.494
   216    5   0.0000   0.2502   0.1991  0.01021  -8.8699E-05  3.3784E-03  3.3795E-03   91.504
   217    5   0.0000   0.2502   0.2093  0.01021  -9.0644E-05  3.4345E-03  3.4357E-03   91.512
   218    5   0.0000   0.2502   0.2195  0.01021  -9.2173E-05  3.4784E-03  3.4796E-03   91.518
   219    5   0.0000   0.2502   0.2297  0.01021  -9.3274E-05  3.5098E-03  3.5111E-03   91.522
   220    5   0.0000   0.2502   0.2400  0.01021  -9.3939E-05  3.5287E-03  3.5300E-03   91.525
   221    5   0.0000   0.2502   0.2502  0.01021  -9.4161E-05  3.5350E-03  3.5363E-03   91.526
   222    5   0.0000   0.2502   0.2604  0.01021  -9.3939E-05  3.5287E-03  3.5300E-03   91.525
   223    5   0.0000   0.2502   0.2706  0.01021  -9.3274E-05  3.5098E-03  3.5111E-03   91.522
   224    5   0.0000   0.2502   0.2808  0.01021  -9.2173E-05  3.4784E-03  3.4796E-03   91.518
   225    5   0.0000   0.2502   0.2910  0.01021  -9.0644E-05  3.4345E-03  3.4357E-03   91.512
   226    5   0.0000   0.2502   0.3012  0.01021  -8.8699E-05  3.3784E-03  3.3795E-03   91.504
   227    5   0.0000   0.2502   0.3114  0.01021  -8.6354E-05  3.3101E-03  3.3112E-03   91.494
   228    5   0.0000   0.2502   0.3216  0.01021  -8.3628E-05  3.2299E-03  3.2310E-03   91.483
   229    5   0.0000   0.2502   0.3319  0.01021  -8.0543E-05  3.1381E-03  3.1392E-03   91.470
   230    5   0.0000   0.2502   0.3421  0.01021  -7.7123E-05  3.0349E-03  3.0359E-03   91.456
   231    5   0.0000   0.2502   0.3523  0.01021  -7.3396E-05  2.9207E-03  2.9216E-03   91.440
   232    5   0.0000   0.2502   0.3625  0.01021  -6.9390E-05  2.7957E-03  2.7965E-03   91.422
   233    5   0.0000   0.2502   0.3727  0.01021  -6.5137E-05  2.6603E-03  2.6611E-03   91.403
   234    5   0.0000   0.2502   0.3829  0.01021  -6.0669E-05  2.5149E-03  2.5156E-03   91.382
   235    5   0.0000   0.2502   0.3931  0.01021  -5.6020E-05  2.3599E-03  2.3606E-03   91.360
   236    5   0.0000   0.2502   0.4033  0.01021  -5.1223E-05  2.1957E-03  2.1963E-03   91.336
   237    5   0.0000   0.2502   0.4135  0.01021  -4.6312E-05  2.0225E-03  2.0231E-03   91.312
   238    5   0.0000   0.2502   0.4238  0.01021  -4.1319E-05  1.8408E-03  1.8413E-03   91.286
   239    5   0.0000   0.2502   0.4340  0.01021  -3.6275E-05  1.6507E-03  1.6511E-03   91.259
   240    5   0.0000   0.2502   0.4442  0.01021  -3.1205E-05  1.4523E-03  1.4527E-03   91.231
   241    5   0.0000   0.2502   0.4544  0.01021  -2.6131E-05  1.2455E-03  1.2457E-03   91.202
   242    5   0.0000   0.2502   0.4646  0.01021  -2.1064E-05  1.0295E-03  1.0297E-03   91.172
   243    5   0.0000   0.2502   0.4748  0.01021  -1.5992E-05  8.0258E-04  8.0274E-04   91.142
   244    5   0.0000   0.2502   0.4850  0.01021  -1.0870E-05  5.6110E-04  5.6121E-04   91.110
   245    5   0.0000   0.2502   0.4952  0.01021  -5.2641E-06  2.7979E-04  2.7984E-04   91.078
   246    6  -0.2502   0.2502   0.0051  0.01021   9.0424E-05  1.2489E-04  1.5419E-04   54.095
   247    6  -0.2502   0.2502   0.0153  0.01021   1.8126E-04  2.4996E-04  3.0876E-04   54.053
   248    6  -0.2502   0.2502   0.0255  0.01021   2.5915E-04  3.5685E-04  4.4102E-04   54.013
   249    6  -0.2502   0.2502   0.0357  0.01021   3.3226E-04  4.5690E-04  5.6494E-04   53.975
   250    6  -0.2502   0.2502   0.0459  0.01021   4.0180E-04  5.5182E-04  6.8261E-04   53.940
   251    6  -0.2502   0.2502   0.0562  0.01021   4.6834E-04  6.4243E-04  7.9503E-04   53.907
   252    6  -0.2502   0.2502   0.0664  0.01021   5.3211E-04  7.2907E-04  9.0260E-04   53.876
   253    6  -0.2502   0.2502   0.0766  0.01021   5.9316E-04  8.1186E-04  1.0055E-03   53.847
   254    6  -0.2502   0.2502   0.0868  0.01021   6.5148E-04  8.9079E-04  1.1036E-03   53.820
   255    6  -0.2502   0.2502   0.0970  0.01021   7.0701E-04  9.6582E-04  1.1969E-03   53.795
   256    6  -0.2502   0.2502   0.1072  0.01021   7.5966E-04  1.0368E-03  1.2853E-03   53.771
   257    6  -0.2502   0.2502   0.1174  0.01021   8.0931E-04  1.1037E-03  1.3686E-03   53.749
   258    6  -0.2502   0.2502   0.1276  0.01021   8.5586E-04  1.1663E-03  1.4467E-03   53.728
   259    6  -0.2502   0.2502   0.1378  0.01021   8.9919E-04  1.2245E-03  1.5192E-03   53.710
   260    6  -0.2502   0.2502   0.1481  0.01021   9.3918E-04  1.2782E-03  1.5862E-03   53.693
   261    6  -0.2502   0.2502   0.1583  0.01021   9.7573E-04  1.3272E-03  1.6473E-03   53.678
   262    6  -0.2502   0.2502   0.1685  0.01021   1.0087E-03  1.3714E-03  1.7024E-03   53.664
   263    6  -0.2502   0.2502   0.1787  0.01021   1.0381E-03  1.4107E-03  1.7515E-03   53.652
   264    6  -0.2502   0.2502   0.1889  0.01021   1.0637E-03  1.4450E-03  1.7943E-03   53.642
   265    6  -0.2502   0.2502   0.1991  0.01021   1.0855E-03  1.4742E-03  1.8307E-03   53.633
   266    6  -0.2502   0.2502   0.2093  0.01021   1.1035E-03  1.4981E-03  1.8607E-03   53.626
   267    6  -0.2502   0.2502   0.2195  0.01021   1.1175E-03  1.5168E-03  1.8840E-03   53.620
   268    6  -0.2502   0.2502   0.2297  0.01021   1.1275E-03  1.5302E-03  1.9008E-03   53.616
   269    6  -0.2502   0.2502   0.2400  0.01021   1.1336E-03  1.5383E-03  1.9109E-03   53.614
   270    6  -0.2502   0.2502   0.2502  0.01021   1.1356E-03  1.5410E-03  1.9142E-03   53.613
   271    6  -0.2502   0.2502   0.2604  0.01021   1.1336E-03  1.5383E-03  1.9109E-03   53.614
   272    6  -0.2502   0.2502   0.2706  0.01021   1.1275E-03  1.5302E-03  1.9008E-03   53.616
   273    6  -0.2502   0.2502   0.2808  0.01021   1.1175E-03  1.5168E-03  1.8840E-03   53.620
   274    6  -0.2502   0.2502   0.2910  0.01021   1.1035E-03  1.4981E-03  1.8607E-03   53.626
   275    6  -0.2502   0.2502   0.3012  0.01021   1.0855E-03  1.4742E-03  1.8307E-03   53.633
   276    6  -0.2502   0.2502   0.3114  0.01021   1.0637E-03  1.4450E-03  1.7943E-03   53.642
   277    6  -0.2502   0.2502   0.3216  0.01021   1.0381E-03  1.4107E-03  1.7515E-03   53.652
   278    6  -0.2502   0.2502   0.3319  0.01021   1.0087E-03  1.3714E-03  1.7024E-03   53.664
   279    6  -0.2502   0.2502   0.3421  0.01021   9.7573E-04  1.3272E-03  1.6473E-03   53.678
   280    6  -0.2502   0.2502   0.3523  0.01021   9.3918E-04  1.2782E-03  1.5862E-03   53.693
   281    6  -0.2502   0.2502   0.3625  0.01021   8.9919E-04  1.2245E-03  1.5192E-03   53.710
   282    6  -0.2502   0.2502   0.3727  0.01021   8.5586E-04  1.1663E-03  1.4467E-03   53.728
   283    6  -0.2502   0.2502   0.3829  0.01021   8.0931E-04  1.1037E-03  1.3686E-03   53.749
   284    6  -0.2502   0.2502   0.3931  0.01021   7.5966E-04  1.0368E-03  1.2853E-03   53.771
   285    6  -0.2502   0.2502   0.4033  0.01021   7.0701E-04  9.6582E-04  1.1969E-03   53.795
   286    6  -0.2502   0.2502   0.4135  0.01021   6.5148E-04  8.9079E-04  1.1036E-03   53.820
   287    6  -0.2502   0.2502   0.4238  0.01021   5.9316E-04  8.1186E-04  1.0055E-03   53.847
   288    6  -0.2502   0.2502   0.4340  0.01021   5.3211E-04  7.2907E-04  9.0260E-04   53.876
   289    6  -0.2502   0.2502   0.4442  0.01021   4.6834E-04  6.4243E-04  7.9503E-04   53.907
   290    6  -0.2502   0.2502   0.4544  0.01021   4.0180E-04  5.5182E-04  6.8261E-04   53.940
   291    6  -0.2502   0.2502   0.4646  0.01021   3.3226E-04  4.5690E-04  5.6494E-04   53.975
   292    6  -0.2502   0.2502   0.4748  0.01021   2.5915E-04  3.5685E-04  4.4102E-04   54.013
   293    6  -0.2502   0.2502   0.4850  0.01021   1.8126E-04  2.4996E-04  3.0876E-04   54.053
   294    6  -0.2502   0.2502   0.4952  0.01021   9.0424E-05  1.2489E-04  1.5419E-04   54.095



                                        - - - POWER BUDGET - - -

                                           INPUT POWER   = 1.5471E-03 WATTS
                                           RADIATED POWER= 1.5471E-03 WATTS
                                           STRUCTURE LOSS= 0.0000E+00 WATTS
                                           NETWORK LOSS  = 0.0000E+00 WATTS
                                           EFFICIENCY    = 100.00 PERCENT






 ***** DATA CARD NO.  6   FR   0   101     0     0  2.00000E+02  1.00000E+01  0.00000E+00  0.00000E+00  0.00000E+00  0.00000E+00
 ***** DATA CARD NO.  7   RP   0    73     1  1000 -1.80000E+02  2.25000E+02  5.00000E+00  0.00000E+00  0.00000E+00  0.00000E+00




                                 - - - - - - FREQUENCY - - - - - -

                                    FREQUENCY= 2.0000E+02 MHZ
                                    WAVELENGTH= 1.4990E+00 METERS




                    APPROXIMATE INTEGRATION EMPLOYED FOR SEGMENTS MORE THAN   1.000 WAVELENGTHS APART

                    THE EXTENDED THIN WIRE KERNEL WILL BE USED



                               - - - STRUCTURE IMPEDANCE LOADING - - -

                                   THIS STRUCTURE IS NOT LOADED



                                  - - - ANTENNA ENVIRONMENT - - -

                                            FREE SPACE



                                - - - MATRIX TIMING - - -

                        FILL=    0.141 SEC.,  FACTOR=    0.047 SEC.



                                          - - - ANTENNA INPUT PARAMETERS - - -

   TAG   SEG.    VOLTAGE (VOLTS)         CURRENT (AMPS)         IMPEDANCE (OHMS)        ADMITTANCE (MHOS)      POWER
   NO.   NO.    REAL        IMAG.       REAL        IMAG.       REAL        IMAG.       REAL        IMAG.     (WATTS)
     1    25 1.00000E+00 0.00000E+00 3.09421E-03-4.68714E-03 9.80937E+01 1.48593E+02 3.09421E-03-4.68714E-03 1.54711E-03



                             - - - CURRENTS AND LOCATION - - -

                                 DISTANCES IN WAVELENGTHS


  SEG.  TAG    COORD. OF SEG. CENTER     SEG.            - - - CURRENT (AMPS) - - -
  NO.   NO.     X        Y        Z      LENGTH     REAL        IMAG.       MAG.        PHASE
     1    1   0.0000   0.0000   0.0051  0.01021   2.4351E-04 -5.8517E-04  6.3381E-04  -67.406
     2    1   0.0000   0.0000   0.0153  0.01021   4.8860E-04 -1.1635E-03  1.2619E-03  -67.220
     3    1   0.0000   0.0000   0.0255  0.01021   6.9923E-04 -1.6496E-03  1.7917E-03  -67.029
     4    1   0.0000   0.0000   0.0357  0.01021   8.9731E-04 -2.0972E-03  2.2811E-03  -66.836
     5    1   0.0000   0.0000   0.0459  0.01021   1.0860E-03 -2.5143E-03  2.7388E-03  -66.639
     6    1   0.0000   0.0000   0.0562  0.01021   1.2669E-03 -2.9046E-03  3.1689E-03  -66.435
     7    1   0.0000   0.0000   0.0664  0.01021   1.4404E-03 -3.2697E-03  3.5729E-03  -66.224
     8    1   0.0000   0.0000   0.0766  0.01021   1.6069E-03 -3.6099E-03  3.9513E-03  -66.005
     9    1   0.0000   0.0000   0.0868  0.01021   1.7660E-03 -3.9251E-03  4.3041E-03  -65.775
    10    1   0.0000   0.0000   0.0970  0.01021   1.9178E-03 -4.2149E-03  4.6307E-03  -65.535
    11    1   0.0000   0.0000   0.1072  0.01021   2.0618E-03 -4.4787E-03  4.9305E-03  -65.281
    12    1   0.0000   0.0000   0.1174  0.01021   2.1977E-03 -4.7158E-03  5.2028E-03  -65.013
    13    1   0.0000   0.0000   0.1276  0.01021   2.3253E-03 -4.9254E-03  5.4467E-03  -64.728
    14    1   0.0000   0.0000   0.1378  0.01021   2.4441E-03 -5.1067E-03  5.6614E-03  -64.424
    15    1   0.0000   0.0000   0.1481  0.01021   2.5539E-03 -5.2588E-03  5.8461E-03  -64.097
    16    1   0.0000   0.0000   0.1583  0.01021   2.6543E-03 -5.3809E-03  5.9999E-03  -63.743
    17    1   0.0000   0.0000   0.1685  0.01021   2.7450E-03 -5.4720E-03  6.1219E-03  -63.359
    18    1   0.0000   0.0000   0.1787  0.01021   2.8258E-03 -5.5311E-03  6.2112E-03  -62.938
    19    1   0.0000   0.0000   0.1889  0.01021   2.8963E-03 -5.5570E-03  6.2665E-03  -62.472
    20    1   0.0000   0.0000   0.1991  0.01021   2.9564E-03 -5.5481E-03  6.2866E-03  -61.949
    21    1   0.0000   0.0000   0.2093  0.01021   3.0058E-03 -5.5019E-03  6.2694E-03  -61.352
    22    1   0.0000   0.0000   0.2195  0.01021   3.0444E-03 -5.4143E-03  6.2115E-03  -60.652
    23    1   0.0000   0.0000   0.2297  0.01021   3.0720E-03 -5.2780E-03  6.1070E-03  -59.799
    24    1   0.0000   0.0000   0.2400  0.01021   3.0887E-03 -5.0511E-03  5.9206E-03  -58.555
    25    1   0.0000   0.0000   0.2502  0.01021   3.0942E-03 -4.6871E-03  5.6164E-03  -56.569
    26    1   0.0000   0.0000   0.2604  0.01021   3.0887E-03 -5.0511E-03  5.9206E-03  -58.555
    27    1   0.0000   0.0000   0.2706  0.01021   3.0720E-03 -5.2780E-03  6.1070E-03  -59.799
    28    1   0.0000   0.0000   0.2808  0.01021   3.0444E-03 -5.4143E-03  6.2115E-03  -60.652
    29    1   0.0000   0.0000   0.2910  0.01021   3.0058E-03 -5.5019E-03  6.2694E-03  -61.352
    30    1   0.0000   0.0000   0.3012  0.01021   2.9564E-03 -5.5481E-03  6.2866E-03  -61.949
    31    1   0.0000   0.0000   0.3114  0.01021   2.8963E-03 -5.5570E-03  6.2665E-03  -62.472
    32    1   0.0000   0.0000   0.3216  0.01021   2.8258E-03 -5.5311E-03  6.2112E-03  -62.938
    33    1   0.0000   0.0000   0.3319  0.01021   2.7450E-03 -5.4720E-03  6.1219E-03  -63.359
    34    1   0.0000   0.0000   0.3421  0.01021   2.6543E-03 -5.3809E-03  5.9999E-03  -63.743
    35    1   0.0000   0.0000   0.3523  0.01021   2.5539E-03 -5.2588E-03  5.8461E-03  -64.097
    36    1   0.0000   0.0000   0.3625  0.01021   2.4441E-03 -5.1067E-03  5.6614E-03  -64.424
    37    1   0.0000   0.0000   0.3727  0.01021   2.3253E-03 -4.9254E-03  5.4467E-03  -64.728
    38    1   0.0000   0.0000   0.3829  0.01021   2.1977E-03 -4.7158E-03  5.2028E-03  -65.013
    39    1   0.0000   0.0000   0.3931  0.01021   2.0618E-03 -4.4787E-03  4.9305E-03  -65.281
    40    1   0.0000   0.0000   0.4033  0.01021   1.9178E-03 -4.2149E-03  4.6307E-03  -65.535
    41    1   0.0000   0.0000   0.4135  0.01021   1.7660E-03 -3.9251E-03  4.3041E-03  -65.775
    42    1   0.0000   0.0000   0.4238  0.01021   1.6069E-03 -3.6099E-03  3.9513E-03  -66.005
    43    1   0.0000   0.0000   0.4340  0.01021   1.4404E-03 -3.2697E-03  3.5729E-03  -66.224
    44    1   0.0000   0.0000   0.4442  0.01021   1.2669E-03 -2.9046E-03  3.1689E-03  -66.435
    45    1   0.0000   0.0000   0.4544  0.01021   1.0860E-03 -2.5143E-03  2.7388E-03  -66.639
    46    1   0.0000   0.0000   0.4646  0.01021   8.9731E-04 -2.0972E-03  2.2811E-03  -66.836
    47    1   0.0000   0.0000   0.4748  0.01021   6.9923E-04 -1.6496E-03  1.7917E-03  -67.029
    48    1   0.0000   0.0000   0.4850  0.01021   4.8860E-04 -1.1635E-03  1.2619E-03  -67.220
    49    1   0.0000   0.0000   0.4952  0.01021   2.4351E-04 -5.8517E-04  6.3381E-04  -67.406
    50    2   0.2502   0.0000   0.0051  0.01021  -5.2641E-06  2.7979E-04  2.7984E-04   91.078
    51    2   0.2502   0.0000   0.0153  0.01021  -1.0870E-05  5.6110E-04  5.6121E-04   91.110
    52    2   0.2502   0.0000   0.0255  0.01021  -1.5992E-05  8.0258E-04  8.0274E-04   91.142
    53    2   0.2502   0.0000   0.0357  0.01021  -2.1064E-05  1.0295E-03  1.0297E-03   91.172
    54    2   0.2502   0.0000   0.0459  0.01021  -2.6131E-05  1.2455E-03  1.2457E-03   91.202
    55    2   0.2502   0.0000   0.0562  0.01021  -3.1205E-05  1.4523E-03  1.4527E-03   91.231
    56    2   0.2502   0.0000   0.0664  0.01021  -3.6275E-05  1.6507E-03  1.6511E-03   91.259
    57    2   0.2502   0.0000   0.0766  0.01021  -4.1319E-05  1.8408E-03  1.8413E-03   91.286
    58    2   0.2502   0.0000   0.0868  0.01021  -4.6312E-05  2.0225E-03  2.0231E-03   91.312
    59    2   0.2502   0.0000   0.0970  0.01021  -5.1223E-05  2.1957E-03  2.1963E-03   91.336
    60    2   0.2502   0.0000   0.1072  0.01021  -5.6020E-05  2.3599E-03  2.3606E-03   91.360
    61    2   0.2502   0.0000   0.1174  0.01021  -6.0669E-05  2.5149E-03  2.5156E-03   91.382
    62    2   0.2502   0.0000   0.1276  0.01021  -6.5137E-05  2.6603E-03  2.6611E-03   91.403
    63    2   0.2502   0.0000   0.1378  0.01021  -6.9390E-05  2.7957E-03  2.7965E-03   91.422
    64    2   0.2502   0.0000   0.1481  0.01021  -7.3396E-05  2.9207E-03  2.9216E-03   91.440
    65    2   0.2502   0.0000   0.1583  0.01021  -7.7123E-05  3.0349E-03  3.0359E-03   91.456
    66    2   0.2502   0.0000   0.1685  0.01021  -8.0543E-05  3.1381E-03  3.1392E-03   91.470
    67    2   0.2502   0.0000   0.1787  0.01021  -8.3628E-05  3.2299E-03  3.2310E-03   91.483
    68    2   0.2502   0.0000   0.1889  0.01021  -8.6354E-05  3.3101E-03  3.3112E-03   91.494
    69    2   0.2502   0.0000   0.1991  0.01021  -8.8699E-05  3.3784E-03  3.3795E-03   91.504
    70    2   0.2502   0.0000   0.2093  0.01021  -9.0644E-05  3.4345E-03  3.4357E-03   91.512
    71    2   0.2502   0.0000   0.2195  0.01021  -9.2173E-05  3.4784E-03  3.4796E-03   91.518
    72    2   0.2502   0.0000   0.2297  0.01021  -9.3274E-05  3.5098E-03  3.5111E-03   91.522
    73    2   0.2502   0.0000   0.2400  0.01021  -9.3939E-05  3.5287E-03  3.5300E-03   91.525
    74    2   0.2502   0.0000   0.2502  0.01021  -9.4161E-05  3.5350E-03  3.5363E-03   91.526
    75    2   0.2502   0.0000   0.2604  0.01021  -9.3939E-05  3.5287E-03  3.5300E-03   91.525
    76    2   0.2502   0.0000   0.2706  0.01021  -9.3274E-05  3.5098E-03  3.5111E-03   91.522
    77    2   0.2502   0.0000   0.2808  0.01021  -9.2173E-05  3.4784E-03  3.4796E-03   91.518
    78    2   0.2502   0.0000   0.2910  0.01021  -9.0644E-05  3.4345E-03  3.4357E-03   91.512
    79    2   0.2502   0.0000   0.3012  0.01021  -8.8699E-05  3.3784E-03  3.3795E-03   91.504
    80    2   0.2502   0.0000   0.3114  0.01021  -8.6354E-05  3.3101E-03  3.3112E-03   91.494
    81    2   0.2502   0.0000   0.3216  0.01021  -8.3628E-05  3.2299E-03  3.2310E-03   91.483
    82    2   0.2502   0.0000   0.3319  0.01021  -8.0543E-05  3.1381E-03  3.1392E-03   91.470
    83    2   0.2502   0.0000   0.3421  0.01021  -7.7123E-05  3.0349E-03  3.0359E-03   91.456
    84    2   0.2502   0.0000   0.3523  0.01021  -7.3396E-05  2.9207E-03  2.9216E-03   91.440
    85    2   0.2502   0.0000   0.3625  0.01021  -6.9390E-05  2.7957E-03  2.7965E-03   91.422
    86    2   0.2502   0.0000   0.3727  0.01021  -6.5137E-05  2.6603E-03  2.6611E-03   91.403
    87    2   0.2502   0.0000   0.3829  0.01021  -6.0669E-05  2.5149E-03  2.5156E-03   91.382
    88    2   0.2502   0.0000   0.3931  0.01021  -5.6020E-05  2.3599E-03  2.3606E-03   91.360
    89    2   0.2502   0.0000   0.4033  0.01021  -5.1223E-05  2.1957E-03  2.1963E-03   91.336
    90    2   0.2502   0.0000   0.4135  0.01021  -4.6312E-05  2.0225E-03  2.0231E-03   91.312
    91    2   0.2502   0.0000   0.4238  0.01021  -4.1319E-05  1.8408E-03  1.8413E-03   91.286
    92    2   0.2502   0.0000   0.4340  0.01021  -3.6275E-05  1.6507E-03  1.6511E-03   91.259
    93    2   0.2502   0.0000   0.4442  0.01021  -3.1205E-05  1.4523E-03  1.4527E-03   91.231
    94    2   0.2502   0.0000   0.4544  0.01021  -2.6131E-05  1.2455E-03  1.2457E-03   91.202
    95    2   0.2502   0.0000   0.4646  0.01021  -2.1064E-05  1.0295E-03  1.0297E-03   91.172
    96    2   0.2502   0.0000   0.4748  0.01021  -1.5992E-05  8.0258E-04  8.0274E-04   91.142
    97    2   0.2502   0.0000   0.4850  0.01021  -1.0870E-05  5.6110E-04  5.6121E-04   91.110
    98    2   0.2502   0.0000   0.4952  0.01021  -5.2641E-06  2.7979E-04  2.7984E-04   91.078
    99    3   0.2502  -0.2502   0.0051  0.01021   9.0424E-05  1.2489E-04  1.5419E-04   54.095
   100    3   0.2502  -0.2502   0.0153  0.01021   1.8126E-04  2.4996E-04  3.0876E-04   54.053
   101    3   0.2502  -0.2502   0.0255  0.01021   2.5915E-04  3.5685E-04  4.4102E-04   54.013
   102    3   0.2502  -0.2502   0.0357  0.01021   3.3226E-04  4.5690E-04  5.6494E-04   53.975
   103    3   0.2502  -0.2502   0.0459  0.01021   4.0180E-04  5.5182E-04  6.8261E-04   53.940
   104    3   0.2502  -0.2502   0.0562  0.01021   4.6834E-04  6.4243E-04  7.9503E-04   53.907
   105    3   0.2502  -0.2502   0.0664  0.01021   5.3211E-04  7.2907E-04  9.0260E-04   53.876
   106    3   0.2502  -0.2502   0.0766  0.01021   5.9316E-04  8.1186E-04  1.0055E-03   53.847
   107    3   0.2502  -0.2502   0.0868  0.01021   6.5148E-04  8.9079E-04  1.1036E-03   53.820
   108    3   0.2502  -0.2502   0.0970  0.01021   7.0701E-04  9.6582E-04  1.1969E-03   53.795
   109    3   0.2502  -0.2502   0.1072  0.01021   7.5966E-04  1.0368E-03  1.2853E-03   53.771
   110    3   0.2502  -0.2502   0.1174  0.01021   8.0931E-04  1.1037E-03  1.3686E-03   53.749
   111    3   0.2502  -0.2502   0.1276  0.01021   8.5586E-04  1.1663E-03  1.4467E-03   53.728
   112    3   0.2502  -0.2502   0.1378  0.01021   8.9919E-04  1.2245E-03  1.5192E-03   53.710
   113    3   0.2502  -0.2502   0.1481  0.01021   9.3918E-04  1.2782E-03  1.5862E-03   53.693
   114    3   0.2502  -0.2502   0.1583  0.01021   9.7573E-04  1.3272E-03  1.6473E-03   53.678
   115    3   0.2502  -0.2502   0.1685  0.01021   1.0087E-03  1.3714E-03  1.7024E-03   53.664
   116    3   0.2502  -0.2502   0.1787  0.01021   1.0381E-03  1.4107E-03  1.7515E-03   53.652
   117    3   0.2502  -0.2502   0.1889  0.01021   1.0637E-03  1.4450E-03  1.7943E-03   53.642
   118    3   0.2502  -0.2502   0.1991  0.01021   1.0855E-03  1.4742E-03  1.8307E-03   53.633
   119    3   0.2502  -0.2502   0.2093  0.01021   1.1035E-03  1.4981E-03  1.8607E-03   53.626
   120    3   0.2502  -0.2502   0.2195  0.01021   1.1175E-03  1.5168E-03  1.8840E-03   53.620
   121    3   0.2502  -0.2502   0.2297  0.01021   1.1275E-03  1.5302E-03  1.9008E-03   53.616
   122    3   0.2502  -0.2502   0.2400  0.01021   1.1336E-03  1.5383E-03  1.9109E-03   53.614
   123    3   0.2502  -0.2502   0.2502  0.01021   1.1356E-03  1.5410E-03  1.9142E-03   53.613
   124    3   0.2502  -0.2502   0.2604  0.01021   1.1336E-03  1.5383E-03  1.9109E-03   53.614
   125    3   0.2502  -0.2502   0.2706  0.01021   1.1275E-03  1.5302E-03  1.9008E-03   53.616
   126    3   0.2502  -0.2502   0.2808  0.01021   1.1175E-03  1.5168E-03  1.8840E-03   53.620
   127    3   0.2502  -0.2502   0.2910  0.01021   1.1035E-03  1.4981E-03  1.8607E-03   53.626
   128    3   0.2502  -0.2502   0.3012  0.01021   1.0855E-03  1.4742E-03  1.8307E-03   53.633
   129    3   0.2502  -0.2502   0.3114  0.01021   1.0637E-03  1.4450E-03  1.7943E-03   53.642
   130    3   0.2502  -0.2502   0.3216  0.01021   1.0381E-03  1.4107E-03  1.7515E-03   53.652
   131    3   0.2502  -0.2502   0.3319  0.01021   1.0087E-03  1.3714E-03  1.7024E-03   53.664
   132    3   0.2502  -0.2502   0.3421  0.01021   9.7573E-04  1.3272E-03  1.6473E-03   53.678
   133    3   0.2502  -0.2502   0.3523  0.01021   9.3918E-04  1.2782E-03  1.5862E-03   53.693
   134    3   0.2502  -0.2502   0.3625  0.01021   8.9919E-04  1.2245E-03  1.5192E-03   53.710
   135    3   0.2502  -0.2502   0.3727  0.01021   8.5586E-04  1.1663E-03  1.4467E-03   53.728
   136    3   0.2502  -0.2502   0.3829  0.01021   8.0931E-04  1.1037E-03  1.3686E-03   53.749
   137    3   0.2502  -0.2502   0.3931  0.01021   7.5966E-04  1.0368E-03  1.2853E-03   53.771
   138    3   0.2502  -0.2502   0.4033  0.01021   7.0701E-04  9.6582E-04  1.1969E-03   53.795
   139    3   0.2502  -0.2502   0.4135  0.01021   6.5148E-04  8.9079E-04  1.1036E-03   53.820
   140    3   0.2502  -0.2502   0.4238  0.01021   5.9316E-04  8.1186E-04  1.0055E-03   53.847
   141    3   0.2502  -0.2502   0.4340  0.01021   5.3211E-04  7.2907E-04  9.0260E-04   53.876
   142    3   0.2502  -0.2502   0.4442  0.01021   4.6834E-04  6.4243E-04  7.9503E-04   53.907
   143    3   0.2502  -0.2502   0.4544  0.01021   4.0180E-04  5.5182E-04  6.8261E-04   53.940
   144    3   0.2502  -0.2502   0.4646  0.01021   3.3226E-04  4.5690E-04  5.6494E-04   53.975
   145    3   0.2502  -0.2502   0.4748  0.01021   2.5915E-04  3.5685E-04  4.4102E-04   54.013
   146    3   0.2502  -0.2502   0.4850  0.01021   1.8126E-04  2.4996E-04  3.0876E-04   54.053
   147    3   0.2502  -0.2502   0.4952  0.01021   9.0424E-05  1.2489E-04  1.5419E-04   54.095
   148    4   0.2502   0.2502   0.0051  0.01021  -3.8757E-05  6.5400E-05  7.6022E-05  120.651
   149    4   0.2502   0.2502   0.0153  0.01021  -7.7805E-05  1.3032E-04  1.5178E-04  120.839
   150    4   0.2502   0.2502   0.0255  0.01021  -1.1140E-04  1.8525E-04  2.1616E-04  121.022
   151    4   0.2502   0.2502   0.0357  0.01021  -1.4304E-04  2.3621E-04  2.7614E-04  121.197
   152    4   0.2502   0.2502   0.0459  0.01021  -1.7321E-04  2.8414E-04  3.3278E-04  121.367
   153    4   0.2502   0.2502   0.0562  0.01021  -2.0217E-04  3.2953E-04  3.8660E-04  121.530
   154    4   0.2502   0.2502   0.0664  0.01021  -2.3000E-04  3.7258E-04  4.3786E-04  121.687
   155    4   0.2502   0.2502   0.0766  0.01021  -2.5671E-04  4.1342E-04  4.8663E-04  121.838
   156    4   0.2502   0.2502   0.0868  0.01021  -2.8229E-04  4.5207E-04  5.3297E-04  121.982
   157    4   0.2502   0.2502   0.0970  0.01021  -3.0671E-04  4.8856E-04  5.7685E-04  122.120
   158    4   0.2502   0.2502   0.1072  0.01021  -3.2991E-04  5.2287E-04  6.1825E-04  122.250
   159    4   0.2502   0.2502   0.1174  0.01021  -3.5184E-04  5.5500E-04  6.5712E-04  122.373
   160    4   0.2502   0.2502   0.1276  0.01021  -3.7244E-04  5.8490E-04  6.9341E-04  122.487
   161    4   0.2502   0.2502   0.1378  0.01021  -3.9165E-04  6.1255E-04  7.2705E-04  122.594
   162    4   0.2502   0.2502   0.1481  0.01021  -4.0941E-04  6.3792E-04  7.5800E-04  122.692
   163    4   0.2502   0.2502   0.1583  0.01021  -4.2567E-04  6.6098E-04  7.8619E-04  122.782
[...]
   188    4   1.5010   1.5010   2.4812  0.06127   7.4423E-05  6.2936E-06  7.4689E-05    4.834
   189    4   1.5010   1.5010   2.5425  0.06127   8.8265E-05 -2.3578E-05  9.1360E-05  -14.956
   190    4   1.5010   1.5010   2.6038  0.06127   1.0397E-04 -4.5110E-05  1.1333E-04  -23.455
   191    4   1.5010   1.5010   2.6650  0.06127   1.1867E-04 -5.7475E-05  1.3186E-04  -25.842
   192    4   1.5010   1.5010   2.7263  0.06127   1.2891E-04 -6.0999E-05  1.4261E-04  -25.323
   193    4   1.5010   1.5010   2.7876  0.06127   1.3106E-04 -5.6932E-05  1.4289E-04  -23.480
   194    4   1.5010   1.5010   2.8488  0.06127   1.2178E-04 -4.7088E-05  1.3057E-04  -21.139
   195    4   1.5010   1.5010   2.9101  0.06127   9.8343E-05 -3.3396E-05  1.0386E-04  -18.757
   196    4   1.5010   1.5010   2.9714  0.06127   5.4734E-05 -1.6384E-05  5.7133E-05  -16.665
   197    5   0.0000   1.5010   0.0306  0.06127  -5.9292E-05  3.8846E-05  7.0884E-05  146.768
   198    5   0.0000   1.5010   0.0919  0.06127  -9.9334E-05  7.0695E-05  1.2192E-04  144.561
   199    5   0.0000   1.5010   0.1532  0.06127  -1.1188E-04  8.8147E-05  1.4243E-04  141.765
   200    5   0.0000   1.5010   0.2144  0.06127  -1.0567E-04  9.3451E-05  1.4106E-04  138.511
   201    5   0.0000   1.5010   0.2757  0.06127  -8.6016E-05  8.6095E-05  1.2170E-04  134.974
   202    5   0.0000   1.5010   0.3370  0.06127  -5.8988E-05  6.6101E-05  8.8595E-05  131.745
   203    5   0.0000   1.5010   0.3982  0.06127  -3.0705E-05  3.4357E-05  4.6078E-05  131.787
   204    5   0.0000   1.5010   0.4595  0.06127  -6.5624E-06 -7.1994E-06  9.7415E-06 -132.350
   205    5   0.0000   1.5010   0.5208  0.06127   9.4930E-06 -5.5571E-05  5.6376E-05  -80.306
   206    5   0.0000   1.5010   0.5820  0.06127   1.5476E-05 -1.0686E-04  1.0798E-04  -81.760
   207    5   0.0000   1.5010   0.6433  0.06127   1.1560E-05 -1.5657E-04  1.5700E-04  -85.777
   208    5   0.0000   1.5010   0.7046  0.06127  -6.1397E-08 -1.9998E-04  1.9998E-04  -90.018
   209    5   0.0000   1.5010   0.7658  0.06127  -1.5623E-05 -2.3267E-04  2.3320E-04  -93.841
   210    5   0.0000   1.5010   0.8271  0.06127  -3.0476E-05 -2.5095E-04  2.5280E-04  -96.924
   211    5   0.0000   1.5010   0.8883  0.06127  -3.9903E-05 -2.5234E-04  2.5548E-04  -98.986
   212    5   0.0000   1.5010   0.9496  0.06127  -3.9933E-05 -2.3588E-04  2.3924E-04  -99.609
   213    5   0.0000   1.5010   1.0109  0.06127  -2.8030E-05 -2.0233E-04  2.0426E-04  -97.887
   214    5   0.0000   1.5010   1.0721  0.06127  -3.5522E-06 -1.5416E-04  1.5420E-04  -91.320
   215    5   0.0000   1.5010   1.1334  0.06127   3.2083E-05 -9.5397E-05  1.0065E-04  -71.411
   216    5   0.0000   1.5010   1.1947  0.06127   7.5564E-05 -3.1233E-05  8.1765E-05  -22.457
   217    5   0.0000   1.5010   1.2559  0.06127   1.2214E-04  3.2455E-05  1.2638E-04   14.881
   218    5   0.0000   1.5010   1.3172  0.06127   1.6630E-04  8.9698E-05  1.8895E-04   28.341
   219    5   0.0000   1.5010   1.3785  0.06127   2.0260E-04  1.3505E-04  2.4349E-04   33.686
   220    5   0.0000   1.5010   1.4397  0.06127   2.2644E-04  1.6414E-04  2.7967E-04   35.938
   221    5   0.0000   1.5010   1.5010  0.06127   2.3474E-04  1.7417E-04  2.9229E-04   36.574
   222    5   0.0000   1.5010   1.5623  0.06127   2.2644E-04  1.6414E-04  2.7967E-04   35.938
   223    5   0.0000   1.5010   1.6235  0.06127   2.0260E-04  1.3505E-04  2.4349E-04   33.686
   224    5   0.0000   1.5010   1.6848  0.06127   1.6630E-04  8.9698E-05  1.8895E-04   28.341
   225    5   0.0000   1.5010   1.7461  0.06127   1.2214E-04  3.2455E-05  1.2638E-04   14.881
   226    5   0.0000   1.5010   1.8073  0.06127   7.5564E-05 -3.1233E-05  8.1765E-05  -22.457
   227    5   0.0000   1.5010   1.8686  0.06127   3.2083E-05 -9.5397E-05  1.0065E-04  -71.411
   228    5   0.0000   1.5010   1.9299  0.06127  -3.5522E-06 -1.5416E-04  1.5420E-04  -91.320
   229    5   0.0000   1.5010   1.9911  0.06127  -2.8030E-05 -2.0233E-04  2.0426E-04  -97.887
   230    5   0.0000   1.5010   2.0524  0.06127  -3.9933E-05 -2.3588E-04  2.3924E-04  -99.609
   231    5   0.0000   1.5010   2.1137  0.06127  -3.9903E-05 -2.5234E-04  2.5548E-04  -98.986
   232    5   0.0000   1.5010   2.1749  0.06127  -3.0476E-05 -2.5095E-04  2.5280E-04  -96.924
   233    5   0.0000   1.5010   2.2362  0.06127  -1.5623E-05 -2.3267E-04  2.3320E-04  -93.841
   234    5   0.0000   1.5010   2.2975  0.06127  -6.1397E-08 -1.9998E-04  1.9998E-04  -90.018
   235    5   0.0000   1.5010   2.3587  0.06127   1.1560E-05 -1.5657E-04  1.5700E-04  -85.777
   236    5   0.0000   1.5010   2.4200  0.06127   1.5476E-05 -1.0686E-04  1.0798E-04  -81.760
   237    5   0.0000   1.5010   2.4812  0.06127   9.4930E-06 -5.5571E-05  5.6376E-05  -80.306
   238    5   0.0000   1.5010   2.5425  0.06127  -6.5624E-06 -7.1994E-06  9.7415E-06 -132.350
   239    5   0.0000   1.5010   2.6038  0.06127  -3.0705E-05  3.4357E-05  4.6078E-05  131.787
   240    5   0.0000   1.5010   2.6650  0.06127  -5.8988E-05  6.6101E-05  8.8595E-05  131.745
   241    5   0.0000   1.5010   2.7263  0.06127  -8.6016E-05  8.6095E-05  1.2170E-04  134.974
   242    5   0.0000   1.5010   2.7876  0.06127  -1.0567E-04  9.3451E-05  1.4106E-04  138.511
   243    5   0.0000   1.5010   2.8488  0.06127  -1.1188E-04  8.8147E-05  1.4243E-04  141.765
   244    5   0.0000   1.5010   2.9101  0.06127  -9.9334E-05  7.0695E-05  1.2192E-04  144.561
   245    5   0.0000   1.5010   2.9714  0.06127  -5.9292E-05  3.8846E-05  7.0884E-05  146.768
   246    6  -1.5010   1.5010   0.0306  0.06127   4.8490E-05 -5.9659E-06  4.8856E-05   -7.014
   247    6  -1.5010   1.5010   0.0919  0.06127   8.9826E-05 -1.2964E-05  9.0757E-05   -8.213
   248    6  -1.5010   1.5010   0.1532  0.06127   1.1533E-04 -1.9153E-05  1.1691E-04   -9.429
   249    6  -1.5010   1.5010   0.2144  0.06127   1.2938E-04 -2.3476E-05  1.3149E-04  -10.285
   250    6  -1.5010   1.5010   0.2757  0.06127   1.3341E-04 -2.4155E-05  1.3558E-04  -10.262
   251    6  -1.5010   1.5010   0.3370  0.06127   1.2939E-04 -1.9446E-05  1.3084E-04   -8.547
   252    6  -1.5010   1.5010   0.3982  0.06127   1.1959E-04 -8.0281E-06  1.1986E-04   -3.841
   253    6  -1.5010   1.5010   0.4595  0.06127   1.0640E-04  1.0645E-05  1.0693E-04    5.713
   254    6  -1.5010   1.5010   0.5208  0.06127   9.2027E-05  3.6124E-05  9.8863E-05   21.432
   255    6  -1.5010   1.5010   0.5820  0.06127   7.8225E-05  6.6875E-05  1.0292E-04   40.527
   256    6  -1.5010   1.5010   0.6433  0.06127   6.6137E-05  1.0037E-04  1.2020E-04   56.619
   257    6  -1.5010   1.5010   0.7046  0.06127   5.6226E-05  1.3335E-04  1.4472E-04   67.137
   258    6  -1.5010   1.5010   0.7658  0.06127   4.8331E-05  1.6217E-04  1.6922E-04   73.405
   259    6  -1.5010   1.5010   0.8271  0.06127   4.1805E-05  1.8332E-04  1.8802E-04   77.154
   260    6  -1.5010   1.5010   0.8883  0.06127   3.5728E-05  1.9386E-04  1.9713E-04   79.558
   261    6  -1.5010   1.5010   0.9496  0.06127   2.9143E-05  1.9190E-04  1.9410E-04   81.365
   262    6  -1.5010   1.5010   1.0109  0.06127   2.1282E-05  1.7690E-04  1.7817E-04   83.140
   263    6  -1.5010   1.5010   1.0721  0.06127   1.1741E-05  1.4980E-04  1.5026E-04   85.518
   264    6  -1.5010   1.5010   1.1334  0.06127   5.7666E-07  1.1306E-04  1.1306E-04   89.708
   265    6  -1.5010   1.5010   1.1947  0.06127  -1.1684E-05  7.0322E-05  7.1286E-05   99.433
   266    6  -1.5010   1.5010   1.2559  0.06127  -2.4121E-05  2.6103E-05  3.5541E-05  132.740
   267    6  -1.5010   1.5010   1.3172  0.06127  -3.5574E-05 -1.4792E-05  3.8527E-05 -157.422
   268    6  -1.5010   1.5010   1.3785  0.06127  -4.4841E-05 -4.7822E-05  6.5556E-05 -133.158
   269    6  -1.5010   1.5010   1.4397  0.06127  -5.0875E-05 -6.9268E-05  8.5944E-05 -126.296
   270    6  -1.5010   1.5010   1.5010  0.06127  -5.2970E-05 -7.6700E-05  9.3213E-05 -124.630
   271    6  -1.5010   1.5010   1.5623  0.06127  -5.0875E-05 -6.9268E-05  8.5944E-05 -126.296
   272    6  -1.5010   1.5010   1.6235  0.06127  -4.4841E-05 -4.7822E-05  6.5556E-05 -133.158
   273    6  -1.5010   1.5010   1.6848  0.06127  -3.5574E-05 -1.4792E-05  3.8527E-05 -157.422
   274    6  -1.5010   1.5010   1.7461  0.06127  -2.4121E-05  2.6103E-05  3.5541E-05  132.740
   275    6  -1.5010   1.5010   1.8073  0.06127  -1.1684E-05  7.0322E-05  7.1286E-05   99.433
   276    6  -1.5010   1.5010   1.8686  0.06127   5.7666E-07  1.1306E-04  1.1306E-04   89.708
   277    6  -1.5010   1.5010   1.9299  0.06127   1.1741E-05  1.4980E-04  1.5026E-04   85.518
   278    6  -1.5010   1.5010   1.9911  0.06127   2.1282E-05  1.7690E-04  1.7817E-04   83.140
   279    6  -1.5010   1.5010   2.0524  0.06127   2.9143E-05  1.9190E-04  1.9410E-04   81.365
   280    6  -1.5010   1.5010   2.1137  0.06127   3.5728E-05  1.9386E-04  1.9713E-04   79.558
   281    6  -1.5010   1.5010   2.1749  0.06127   4.1805E-05  1.8332E-04  1.8802E-04   77.154
   282    6  -1.5010   1.5010   2.2362  0.06127   4.8331E-05  1.6217E-04  1.6922E-04   73.405
   283    6  -1.5010   1.5010   2.2975  0.06127   5.6226E-05  1.3335E-04  1.4472E-04   67.137
   284    6  -1.5010   1.5010   2.3587  0.06127   6.6137E-05  1.0037E-04  1.2020E-04   56.619
   285    6  -1.5010   1.5010   2.4200  0.06127   7.8225E-05  6.6875E-05  1.0292E-04   40.527
   286    6  -1.5010   1.5010   2.4812  0.06127   9.2027E-05  3.6124E-05  9.8863E-05   21.432
   287    6  -1.5010   1.5010   2.5425  0.06127   1.0640E-04  1.0645E-05  1.0693E-04    5.713
   288    6  -1.5010   1.5010   2.6038  0.06127   1.1959E-04 -8.0281E-06  1.1986E-04   -3.841
   289    6  -1.5010   1.5010   2.6650  0.06127   1.2939E-04 -1.9446E-05  1.3084E-04   -8.547
   290    6  -1.5010   1.5010   2.7263  0.06127   1.3341E-04 -2.4155E-05  1.3558E-04  -10.262
   291    6  -1.5010   1.5010   2.7876  0.06127   1.2938E-04 -2.3476E-05  1.3149E-04  -10.285
   292    6  -1.5010   1.5010   2.8488  0.06127   1.1533E-04 -1.9153E-05  1.1691E-04   -9.429
   293    6  -1.5010   1.5010   2.9101  0.06127   8.9826E-05 -1.2964E-05  9.0757E-05   -8.213
   294    6  -1.5010   1.5010   2.9714  0.06127   4.8490E-05 -5.9659E-06  4.8856E-05   -7.014



                                        - - - POWER BUDGET - - -

                                           INPUT POWER   = 1.1035E-03 WATTS
                                           RADIATED POWER= 1.1035E-03 WATTS
                                           STRUCTURE LOSS= 0.0000E+00 WATTS
                                           NETWORK LOSS  = 0.0000E+00 WATTS
                                           EFFICIENCY    = 100.00 PERCENT



                                                - - - RADIATION PATTERNS - - -

  - - ANGLES - -           - POWER GAINS -       - - - POLARIZATION - - -    - - - E(THETA) - - -    - - - E(PHI) - - -
  THETA     PHI        VERT.   HOR.    TOTAL      AXIAL     TILT   SENSE     MAGNITUDE    PHASE      MAGNITUDE    PHASE 
 DEGREES  DEGREES       DB      DB      DB        RATIO     DEG.              VOLTS/M    DEGREES      VOLTS/M    DEGREES
 -180.00   225.00    -999.99 -999.99 -999.99    0.00000     0.00            4.25998E-12   -41.00    0.00000E+00     0.00
 -175.00   225.00     -16.94 -999.99  -16.94    0.00000     0.00  LINEAR    3.66059E-02   142.13    0.00000E+00     0.00
 -170.00   225.00     -11.73 -999.99  -11.73    0.00000     0.00  LINEAR    6.66855E-02   148.52    0.00000E+00     0.00
 -165.00   225.00     -10.75 -999.99  -10.75    0.00000     0.00  LINEAR    7.46515E-02   152.29    0.00000E+00     0.00
 -160.00   225.00     -11.53 -999.99  -11.53    0.00000     0.00  LINEAR    6.82321E-02   129.31    0.00000E+00     0.00
 -155.00   225.00      -5.70 -999.99   -5.70    0.00000     0.00  LINEAR    1.33412E-01   102.66    0.00000E+00     0.00
 -150.00   225.00       0.04 -999.99    0.04    0.00000     0.00  LINEAR    2.58315E-01   113.77    0.00000E+00     0.00
 -145.00   225.00       3.43 -999.99    3.43    0.00000     0.00  LINEAR    3.81686E-01   136.54    0.00000E+00     0.00
 -140.00   225.00       5.19 -999.99    5.19    0.00000     0.00  LINEAR    4.67590E-01   162.75    0.00000E+00     0.00
 -135.00   225.00       5.77 -999.99    5.77    0.00000     0.00  LINEAR    4.99672E-01  -168.97    0.00000E+00     0.00
 -130.00   225.00       5.18 -999.99    5.18    0.00000     0.00  LINEAR    4.66787E-01  -137.87    0.00000E+00     0.00
 -125.00   225.00       3.00 -999.99    3.00    0.00000     0.00  LINEAR    3.63445E-01  -102.97    0.00000E+00     0.00
 -120.00   225.00      -1.67 -999.99   -1.67    0.00000     0.00  LINEAR    2.12234E-01   -62.46    0.00000E+00     0.00
 -115.00   225.00     -10.63 -999.99  -10.63    0.00000     0.00  LINEAR    7.56827E-02    -0.76    0.00000E+00     0.00
 -110.00   225.00     -12.56 -999.99  -12.56    0.00000     0.00  LINEAR    6.05757E-02   108.10    0.00000E+00     0.00
 -105.00   225.00      -8.31 -999.99   -8.31    0.00000     0.00  LINEAR    9.87983E-02   130.07    0.00000E+00     0.00
 -100.00   225.00      -2.43 -999.99   -2.43    0.00000     0.00  LINEAR    1.94483E-01   143.75    0.00000E+00     0.00
  -95.00   225.00       1.68 -999.99    1.68    0.00000     0.00  LINEAR    3.12247E-01   177.97    0.00000E+00     0.00
  -90.00   225.00       3.02 -999.99    3.02    0.00000     0.00  LINEAR    3.64047E-01  -138.06    0.00000E+00     0.00
  -85.00   225.00       1.68 -999.99    1.68    0.00000     0.00  LINEAR    3.12247E-01   -87.84    0.00000E+00     0.00
  -80.00   225.00      -2.43 -999.99   -2.43    0.00000     0.00  LINEAR    1.94483E-01   -28.59    0.00000E+00     0.00
  -75.00   225.00      -8.31 -999.99   -8.31    0.00000     0.00  LINEAR    9.87983E-02    49.78    0.00000E+00     0.00
  -70.00   225.00     -12.56 -999.99  -12.56    0.00000     0.00  LINEAR    6.05757E-02   117.73    0.00000E+00     0.00
  -65.00   225.00     -10.63 -999.99  -10.63    0.00000     0.00  LINEAR    7.56827E-02    95.97    0.00000E+00     0.00
  -60.00   225.00      -1.67 -999.99   -1.67    0.00000     0.00  LINEAR    2.12234E-01   117.90    0.00000E+00     0.00
  -55.00   225.00       3.00 -999.99    3.00    0.00000     0.00  LINEAR    3.63445E-01   156.91    0.00000E+00     0.00
  -50.00   225.00       5.18 -999.99    5.18    0.00000     0.00  LINEAR    4.66787E-01  -163.20    0.00000E+00     0.00
  -45.00   225.00       5.77 -999.99    5.77    0.00000     0.00  LINEAR    4.99672E-01  -124.79    0.00000E+00     0.00
  -40.00   225.00       5.19 -999.99    5.19    0.00000     0.00  LINEAR    4.67590E-01   -89.37    0.00000E+00     0.00
  -35.00   225.00       3.43 -999.99    3.43    0.00000     0.00  LINEAR    3.81686E-01   -58.19    0.00000E+00     0.00
  -30.00   225.00       0.04 -999.99    0.04    0.00000     0.00  LINEAR    2.58315E-01   -30.30    0.00000E+00     0.00
  -25.00   225.00      -5.70 -999.99   -5.70    0.00000     0.00  LINEAR    1.33412E-01     2.13    0.00000E+00     0.00
  -20.00   225.00     -11.53 -999.99  -11.53    0.00000     0.00  LINEAR    6.82321E-02    64.86    0.00000E+00     0.00
  -15.00   225.00     -10.75 -999.99  -10.75    0.00000     0.00  LINEAR    7.46515E-02   116.19    0.00000E+00     0.00
  -10.00   225.00     -11.73 -999.99  -11.73    0.00000     0.00  LINEAR    6.66855E-02   132.82    0.00000E+00     0.00
   -5.00   225.00     -16.94 -999.99  -16.94    0.00000     0.00  LINEAR    3.66059E-02   138.74    0.00000E+00     0.00
    0.00   225.00    -999.99 -999.99 -999.99    0.00000     0.00            0.00000E+00     0.00    0.00000E+00     0.00
    5.00   225.00     -17.30 -999.99  -17.30    0.00000     0.00  LINEAR    3.50999E-02   -45.14    0.00000E+00     0.00
   10.00   225.00     -11.76 -999.99  -11.76    0.00000     0.00  LINEAR    6.64424E-02   -59.25    0.00000E+00     0.00
   15.00   225.00      -8.87 -999.99   -8.87    0.00000     0.00  LINEAR    9.26715E-02   -85.77    0.00000E+00     0.00
   20.00   225.00      -6.62 -999.99   -6.62    0.00000     0.00  LINEAR    1.20005E-01  -125.51    0.00000E+00     0.00
   25.00   225.00      -3.79 -999.99   -3.79    0.00000     0.00  LINEAR    1.66224E-01  -171.90    0.00000E+00     0.00
   30.00   225.00      -0.68 -999.99   -0.68    0.00000     0.00  LINEAR    2.37777E-01   144.83    0.00000E+00     0.00
   35.00   225.00       1.81 -999.99    1.81    0.00000     0.00  LINEAR    3.16931E-01   106.92    0.00000E+00     0.00
   40.00   225.00       3.41 -999.99    3.41    0.00000     0.00  LINEAR    3.80936E-01    72.70    0.00000E+00     0.00
   45.00   225.00       4.15 -999.99    4.15    0.00000     0.00  LINEAR    4.14589E-01    39.88    0.00000E+00     0.00
   50.00   225.00       3.89 -999.99    3.89    0.00000     0.00  LINEAR    4.02436E-01     5.95    0.00000E+00     0.00
   55.00   225.00       2.09 -999.99    2.09    0.00000     0.00  LINEAR    3.27223E-01   -30.43    0.00000E+00     0.00
   60.00   225.00      -2.34 -999.99   -2.34    0.00000     0.00  LINEAR    1.96415E-01   -67.37    0.00000E+00     0.00
   65.00   225.00     -11.53 -999.99  -11.53    0.00000     0.00  LINEAR    6.82420E-02   -85.78    0.00000E+00     0.00
   70.00   225.00     -12.56 -999.99  -12.56    0.00000     0.00  LINEAR    6.06039E-02   -61.70    0.00000E+00     0.00
   75.00   225.00      -8.28 -999.99   -8.28    0.00000     0.00  LINEAR    9.91248E-02  -136.28    0.00000E+00     0.00
   80.00   225.00      -1.85 -999.99   -1.85    0.00000     0.00  LINEAR    2.07982E-01   144.44    0.00000E+00     0.00
   85.00   225.00       2.41 -999.99    2.41    0.00000     0.00  LINEAR    3.39546E-01    86.30    0.00000E+00     0.00
   90.00   225.00       3.76 -999.99    3.76    0.00000     0.00  LINEAR    3.96702E-01    36.47    0.00000E+00     0.00
   95.00   225.00       2.41 -999.99    2.41    0.00000     0.00  LINEAR    3.39546E-01    -7.89    0.00000E+00     0.00
  100.00   225.00      -1.85 -999.99   -1.85    0.00000     0.00  LINEAR    2.07982E-01   -43.22    0.00000E+00     0.00
  105.00   225.00      -8.28 -999.99   -8.28    0.00000     0.00  LINEAR    9.91248E-02   -55.99    0.00000E+00     0.00
  110.00   225.00     -12.56 -999.99  -12.56    0.00000     0.00  LINEAR    6.06039E-02   -71.32    0.00000E+00     0.00
  115.00   225.00     -11.53 -999.99  -11.53    0.00000     0.00  LINEAR    6.82420E-02   177.49    0.00000E+00     0.00
  120.00   225.00      -2.34 -999.99   -2.34    0.00000     0.00  LINEAR    1.96415E-01   112.27    0.00000E+00     0.00
  125.00   225.00       2.09 -999.99    2.09    0.00000     0.00  LINEAR    3.27223E-01    69.69    0.00000E+00     0.00
  130.00   225.00       3.89 -999.99    3.89    0.00000     0.00  LINEAR    4.02436E-01    31.27    0.00000E+00     0.00
  135.00   225.00       4.15 -999.99    4.15    0.00000     0.00  LINEAR    4.14589E-01    -4.30    0.00000E+00     0.00
  140.00   225.00       3.41 -999.99    3.41    0.00000     0.00  LINEAR    3.80936E-01   -35.18    0.00000E+00     0.00
  145.00   225.00       1.81 -999.99    1.81    0.00000     0.00  LINEAR    3.16931E-01   -58.36    0.00000E+00     0.00
  150.00   225.00      -0.68 -999.99   -0.68    0.00000     0.00  LINEAR    2.37777E-01   -71.10    0.00000E+00     0.00
  155.00   225.00      -3.79 -999.99   -3.79    0.00000     0.00  LINEAR    1.66224E-01   -71.36    0.00000E+00     0.00
  160.00   225.00      -6.62 -999.99   -6.62    0.00000     0.00  LINEAR    1.20005E-01   -61.06    0.00000E+00     0.00
  165.00   225.00      -8.87 -999.99   -8.87    0.00000     0.00  LINEAR    9.26715E-02   -49.66    0.00000E+00     0.00
  170.00   225.00     -11.76 -999.99  -11.76    0.00000     0.00  LINEAR    6.64424E-02   -43.55    0.00000E+00     0.00
  175.00   225.00     -17.30 -999.99  -17.30    0.00000     0.00  LINEAR    3.50999E-02   -41.74    0.00000E+00     0.00
  180.00   225.00    -999.99 -999.99 -999.99    0.00000     0.00            4.25998E-12   139.00    0.00000E+00     0.00
 ***** DATA CARD NO.  8   EN   0    73     1  1000 -1.80000E+02  2.25000E+02  5.00000E+00  0.00000E+00  0.00000E+00  0.00000E+00

 RUN TIME =    14.344
